
-------------------------------------------------------------------------
|    ___ _   _ ___                                                      |
|   / __| | | |_  )   Release 7.5.0 "Blackbird"                         |
|   \__ \ |_| |/ /                                                      |
|   |___/\___//___|   Suite (Computational Fluid Dynamics Code)         |
|                                                                       |
-------------------------------------------------------------------------
| SU2 Project Website: https://su2code.github.io                        |
|                                                                       |
| The SU2 Project is maintained by the SU2 Foundation                   |
| (http://su2foundation.org)                                            |
-------------------------------------------------------------------------
| Copyright 2012-2022, SU2 Contributors                                 |
|                                                                       |
| SU2 is free software; you can redistribute it and/or                  |
| modify it under the terms of the GNU Lesser General Public            |
| License as published by the Free Software Foundation; either          |
| version 2.1 of the License, or (at your option) any later version.    |
|                                                                       |
| SU2 is distributed in the hope that it will be useful,                |
| but WITHOUT ANY WARRANTY; without even the implied warranty of        |
| MERCHANTABILITY or FITNESS FOR A PARTICULAR PURPOSE. See the GNU      |
| Lesser General Public License for more details.                       |
|                                                                       |
| You should have received a copy of the GNU Lesser General Public      |
| License along with SU2. If not, see <http://www.gnu.org/licenses/>.   |
-------------------------------------------------------------------------

Parsing config file for zone 0

----------------- Physical Case Definition ( Zone 0 ) -------------------
Compressible Laminar Navier-Stokes' equations.
Mach number: 0.6.
Angle of attack (AoA): 0 deg, and angle of sideslip (AoS): 0 deg.
Reynolds number: 237969. Reference length 0.2.
No restart solution, use the values at infinity (freestream).
Dimensional simulation.
The reference area is 0.15708 m^2.
The semi-span will be computed using the max y(3D) value.
The reference length is 0.2 m.
Reference origin for moment evaluation is (0.1, 0, 0).
Surface(s) where the force coefficients are evaluated: interface.

Surface(s) plotted in the output file: interface.
Input mesh file name: sphere.su2

--------------- Space Numerical Integration ( Zone 0 ) ------------------
Jameson-Schmidt-Turkel scheme (2nd order in space) for the flow inviscid terms.
JST viscous coefficients (2nd & 4th): 0.25, 0.015625.
The method includes a grid stretching correction (p = 0.3).
Average of gradients with correction (viscous flow terms).
Gradient for upwind reconstruction: Green-Gauss.
Gradient for viscous and source terms: Green-Gauss.

--------------- Time Numerical Integration  ( Zone 0 ) ------------------
Unsteady simulation, dual time stepping strategy (second order in time).
Unsteady time step provided by the user (s): 0.001.
Euler implicit method for the flow equations.
FGMRES is used for solving the linear system.
Using a LU-SGS preconditioning.
Convergence criteria of the linear solver: 1e-06.
Max number of linear iterations: 25.
CFL adaptation. Factor down: 0.5, factor up: 1.5,
                lower limit: 1, upper limit: 15,
                acceptable linear residual: 0.001.
Courant-Friedrichs-Lewy number:       15

------------------ Convergence Criteria  ( Zone 0 ) ---------------------
Maximum number of solver subiterations: 100.
Maximum number of physical time-steps: 200.
Begin convergence monitoring at iteration 5.
Residual minimum value: 1e-4.
Cauchy series min. value: 1e-10.
Number of Cauchy elements: 100.
Begin windowed time average at iteration 9999.
Begin time convergence monitoring at iteration 9999.
Time cauchy series min. value: 0.001.
Number of Cauchy elements: 10.

-------------------- Output Information ( Zone 0 ) ----------------------
File writing frequency: 
+------------------------------------+
|                     File| Frequency|
+------------------------------------+
|                  RESTART|       200|
|                 PARAVIEW|       200|
|         SURFACE_PARAVIEW|       200|
+------------------------------------+
Writing the convergence history file every 0 inner iterations.
Writing the convergence history file every 1 time iterations.
Writing the screen convergence history every 1 inner iterations.
Writing the screen convergence history every 1 time iterations.
The tabular file format is Tecplot (.dat).
Convergence history file name: history.
Forces breakdown file name: forces_breakdown.dat.
Surface file name: output_surface_flow/surface_flow.
Volume file name: output_flow/flow.
Restart file name: output_restart/restart_flow.dat.

------------- Config File Boundary Information ( Zone 0 ) ---------------
+-----------------------------------------------------------------------+
|                        Marker Type|                        Marker Name|
+-----------------------------------------------------------------------+
|                          Far-field|                              inlet|
+-----------------------------------------------------------------------+
|           Deformable mesh boundary|                          interface|
+-----------------------------------------------------------------------+
|                    Outlet boundary|                             outlet|
+-----------------------------------------------------------------------+
|                    Isothermal wall|                          interface|
+-----------------------------------------------------------------------+

-------------------- Output Preprocessing ( Zone 0 ) --------------------

WARNING: SURFACE_PRESSURE_DROP can only be computed for at least 2 surfaces (outlet, inlet, ...)

Screen output fields: TIME_ITER, INNER_ITER, DRAG, LIFT, RMS_DENSITY, REL_RMS_DENSITY
History output group(s): ITER, REL_RMS_RES, RMS_RES, AERO_COEFF
Convergence field(s): REL_RMS_DENSITY
Time Convergence field(s): TAVG_DRAG, TAVG_LIFT
Volume output fields: COORDINATES, SOLUTION, PRIMITIVE

------------------- Geometry Preprocessing ( Zone 0 ) -------------------
Two dimensional problem.
66455 grid points before partitioning.
66000 volume elements before partitioning.
3 surface markers.
440 boundary elements in index 0 (Marker = inlet).
170 boundary elements in index 1 (Marker = interface).
300 boundary elements in index 2 (Marker = outlet).
Executing the partitioning functions.
Building the graph adjacency structure.
Calling ParMETIS... graph partitioning complete (1369 edge cuts).
Distributing ParMETIS coloring.
Rebalancing vertices.
Rebalancing volume element connectivity.
Rebalancing markers and surface elements.
69209 vertices including ghost points. 
67369 interior elements including halo cells. 
67369 quadrilaterals.
Establishing MPI communication patterns.
Setting point connectivity.
Renumbering points (Reverse Cuthill McKee Ordering).
Recomputing point connectivity.
Setting element connectivity.
Checking the numerical grid orientation.
All volume elements are correctly orientend.
All surface elements are correctly orientend.
Identifying edges and vertices.
Setting the control volume structure.
Area of the computational grid: 12.3141.
Searching for the closest normal neighbors to the surfaces.
Storing a mapping from global to local point index.
Compute the surface curvature.
Max K: 35.624. Mean K: 2.19812. Standard deviation K: 4.54939.
Checking for periodicity.
Computing mesh quality statistics for the dual control volumes.
+--------------------------------------------------------------+
|           Mesh Quality Metric|        Minimum|        Maximum|
+--------------------------------------------------------------+
|    Orthogonality Angle (deg.)|        27.9534|        89.9995|
|     CV Face Area Aspect Ratio|        1.00217|        196.771|
|           CV Sub-Volume Ratio|        1.00008|         9.2328|
+--------------------------------------------------------------+
Finding max control volume width.
Communicating number of neighbors.
Wetted area = 0.627908 m.
Area projection in the x-plane = 0.19998 m, y-plane = 0.199987 m.
Max. coordinate in the x-direction = 0.2 m, y-direction = 0.1 m.
Min. coordinate in the x-direction = 0 m, y-direction = -0.1 m.
Computing wall distances.

-------------------- Solver Preprocessing ( Zone 0 ) --------------------
Viscous flow: Computing pressure using the ideal gas law
based on the free-stream temperature and a density computed
from the Reynolds number.
Force coefficients computed using free-stream values.

-- Models:
+------------------------------------------------------------------------------+
|          Viscosity Model|        Conductivity Model|              Fluid Model|
+------------------------------------------------------------------------------+
|       CONSTANT_VISCOSITY|          CONSTANT_PRANDTL|             STANDARD_AIR|
+------------------------------------------------------------------------------+
-- Fluid properties:
+------------------------------------------------------------------------------+
|                  Name|    Dim. value|    Ref. value|      Unit|Non-dim. value|
+------------------------------------------------------------------------------+
|             Viscosity|    1.7893e-05|             1|   N.s/m^2|    1.7893e-05|
+------------------------------------------------------------------------------+
|        Prandtl (Lam.)|             -|             -|         -|          0.72|
|       Prandtl (Turb.)|             -|             -|         -|           0.9|
+------------------------------------------------------------------------------+
|          Gas Constant|       287.058|             1|  N.m/kg.K|       287.058|
|      Spec. Heat Ratio|             -|             -|         -|           1.4|
+------------------------------------------------------------------------------+
-- Initial and free-stream conditions:
+------------------------------------------------------------------------------+
|                  Name|    Dim. value|    Ref. value|      Unit|Non-dim. value|
+------------------------------------------------------------------------------+
|       Static Pressure|       8624.86|             1|        Pa|       8624.86|
|               Density|      0.104271|             1|    kg/m^3|      0.104271|
|           Temperature|        288.15|             1|         K|        288.15|
|          Total Energy|        227634|             1|   m^2/s^2|        227634|
|            Velocity-X|       204.178|             1|       m/s|       204.178|
|            Velocity-Y|             0|             1|       m/s|             0|
|    Velocity Magnitude|       204.178|             1|       m/s|       204.178|
+------------------------------------------------------------------------------+
|             Viscosity|    1.7893e-05|             1|   N.s/m^2|    1.7893e-05|
|          Conductivity|             -|             1|   W/m^2.K|             -|
+------------------------------------------------------------------------------+
|           Mach Number|             -|             -|         -|           0.6|
|       Reynolds Number|             -|             -|         -|        237969|
+------------------------------------------------------------------------------+
-- Unsteady conditions
+------------------------------------------------------------------------------+
|                  Name|    Dim. value|    Ref. value|      Unit|Non-dim. value|
+------------------------------------------------------------------------------+
|            Total Time|             1|             1|         s|             1|
|             Time Step|         0.001|             1|         s|         0.001|
+------------------------------------------------------------------------------+
Initialize Jacobian structure (Navier-Stokes). MG level: 0.

------------------- Numerics Preprocessing ( Zone 0 ) -------------------

----------------- Integration Preprocessing ( Zone 0 ) ------------------

------------------- Iteration Preprocessing ( Zone 0 ) ------------------
Euler/Navier-Stokes/RANS fluid iteration.

------------------------------ Begin Solver -----------------------------

Simulation Run using the Single-zone Driver
The simulation will run for 200 time steps.
WARNING: SU2 was not compiled for an AVX-capable architecture. Performance could be better,
         see https://su2code.github.io/docs_v7/Build-SU2-Linux-MacOS/#compiler-optimizations
+-----------------------------------------------------------------------------+
|   Time_Iter|  Inner_Iter|          CD|          CL|    rms[Rho]| relrms[Rho]|
+-----------------------------------------------------------------------------+
|           0|           0|    2.290757|   -0.000000|   -2.508207|    0.000000|
|           0|           1|    4.335671|    0.000000|   -2.772877|   -0.264671|
|           0|           2|    6.137301|   -0.000000|   -2.927685|   -0.419478|
|           0|           3|    7.316426|   -0.000000|   -3.115386|   -0.607180|
|           0|           4|    7.342517|   -0.000000|   -3.262906|   -0.754700|
|           0|           5|    7.068946|   -0.000000|   -3.300911|   -0.792704|
|           0|           6|    6.854160|   -0.000000|   -3.318323|   -0.810116|
|           0|           7|    6.729169|   -0.000000|   -3.332087|   -0.823880|
|           0|           8|    6.650134|   -0.000000|   -3.340847|   -0.832640|
|           0|           9|    6.583012|   -0.000000|   -3.345389|   -0.837183|
|           0|          10|    6.514517|   -0.000000|   -3.346816|   -0.838609|
|           0|          11|    6.441764|   -0.000000|   -3.346269|   -0.838062|
|           0|          12|    6.364765|   -0.000000|   -3.344655|   -0.836449|
|           0|          13|    6.283897|   -0.000000|   -3.342571|   -0.834365|
|           0|          14|    6.199413|   -0.000000|   -3.340501|   -0.832294|
|           0|          15|    6.111427|   -0.000000|   -3.339036|   -0.830830|
|           0|          16|    6.019899|   -0.000000|   -3.338726|   -0.830519|
|           0|          17|    5.924647|   -0.000000|   -3.339904|   -0.831697|
|           0|          18|    5.825383|   -0.000000|   -3.342834|   -0.834627|
|           0|          19|    5.721819|   -0.000001|   -3.347725|   -0.839518|
|           0|          20|    5.613769|   -0.000001|   -3.354724|   -0.846517|
|           0|          21|    5.501217|   -0.000001|   -3.363932|   -0.855725|
|           0|          22|    5.384366|   -0.000001|   -3.375414|   -0.867207|
|           0|          23|    5.263646|   -0.000001|   -3.389208|   -0.881001|
|           0|          24|    5.139696|   -0.000001|   -3.405322|   -0.897115|
|           0|          25|    5.013345|   -0.000001|   -3.423742|   -0.915535|
|           0|          26|    4.885565|   -0.000001|   -3.444418|   -0.936211|
|           0|          27|    4.757423|   -0.000001|   -3.467266|   -0.959059|
|           0|          28|    4.630028|   -0.000000|   -3.492164|   -0.983957|
|           0|          29|    4.504483|   -0.000000|   -3.518954|   -1.010748|
|           0|          30|    4.381838|   -0.000000|   -3.547451|   -1.039245|
|           0|          31|    4.263068|   -0.000000|   -3.577447|   -1.069240|
|           0|          32|    4.149043|   -0.000000|   -3.608722|   -1.100515|
|           0|          33|    4.040528|   -0.000000|   -3.641058|   -1.132851|
|           0|          34|    3.938183|    0.000000|   -3.674244|   -1.166037|
|           0|          35|    3.842570|    0.000000|   -3.708082|   -1.199875|
|           0|          36|    3.754143|    0.000000|   -3.742388|   -1.234181|
|           0|          37|    3.673261|    0.000000|   -3.776985|   -1.268778|
|           0|          38|    3.600185|    0.000000|   -3.811700|   -1.303493|
|           0|          39|    3.535078|    0.000000|   -3.846357|   -1.338150|
|           0|          40|    3.477997|    0.000000|   -3.880770|   -1.372563|
|           0|          41|    3.428886|    0.000000|   -3.914747|   -1.406540|
|           0|          42|    3.387580|    0.000000|   -3.948097|   -1.439890|
|           0|          43|    3.353801|    0.000000|   -3.980646|   -1.472439|
|           0|          44|    3.327175|    0.000000|   -4.012251|   -1.504044|
|           0|          45|    3.307247|    0.000000|   -4.042823|   -1.534616|
|           0|          46|    3.293480|    0.000000|   -4.072319|   -1.564112|
|           0|          47|    3.285280|    0.000000|   -4.100745|   -1.592538|
|           0|          48|    3.282022|    0.000000|   -4.128137|   -1.619930|
|           0|          49|    3.283076|    0.000000|   -4.154549|   -1.646343|
|           0|          50|    3.287827|    0.000000|   -4.180035|   -1.671828|
|           0|          51|    3.295692|    0.000000|   -4.204646|   -1.696439|
|           0|          52|    3.306123|    0.000000|   -4.228422|   -1.720215|
|           0|          53|    3.318609|    0.000000|   -4.251412|   -1.743205|
|           0|          54|    3.332678|    0.000000|   -4.273682|   -1.765476|
|           0|          55|    3.347893|    0.000000|   -4.295326|   -1.787119|
|           0|          56|    3.363853|    0.000000|   -4.316470|   -1.808263|
|           0|          57|    3.380211|    0.000000|   -4.337274|   -1.829068|
|           0|          58|    3.396660|    0.000000|   -4.357920|   -1.849713|
|           0|          59|    3.412925|    0.000000|   -4.378568|   -1.870361|
|           0|          60|    3.428763|    0.000000|   -4.399349|   -1.891142|
|           0|          61|    3.443958|    0.000000|   -4.420355|   -1.912148|
|           0|          62|    3.458327|   -0.000000|   -4.441646|   -1.933439|
|           0|          63|    3.471728|   -0.000000|   -4.463257|   -1.955050|
|           0|          64|    3.484048|   -0.000000|   -4.485182|   -1.976975|
|           0|          65|    3.495196|   -0.000000|   -4.507384|   -1.999177|
|           0|          66|    3.505106|   -0.000000|   -4.529804|   -2.021598|
|           0|          67|    3.513734|   -0.000000|   -4.552368|   -2.044161|
|           0|          68|    3.521060|   -0.000000|   -4.574999|   -2.066792|
|           0|          69|    3.527077|   -0.000000|   -4.597586|   -2.089379|
|           0|          70|    3.531807|   -0.000000|   -4.620057|   -2.111850|
|           0|          71|    3.535291|   -0.000000|   -4.642320|   -2.134113|
|           0|          72|    3.537580|   -0.000000|   -4.664286|   -2.156079|
|           0|          73|    3.538740|   -0.000000|   -4.685877|   -2.177670|
|           0|          74|    3.538848|   -0.000000|   -4.707035|   -2.198829|
|           0|          75|    3.537991|   -0.000000|   -4.727724|   -2.219518|
|           0|          76|    3.536264|   -0.000000|   -4.747928|   -2.239721|
|           0|          77|    3.533767|   -0.000000|   -4.767648|   -2.259441|
|           0|          78|    3.530600|   -0.000000|   -4.786904|   -2.278697|
|           0|          79|    3.526864|   -0.000000|   -4.805725|   -2.297518|
|           0|          80|    3.522669|   -0.000000|   -4.824217|   -2.316010|
|           0|          81|    3.518120|   -0.000000|   -4.842449|   -2.334242|
|           0|          82|    3.513315|    0.000000|   -4.860481|   -2.352275|
|           0|          83|    3.508349|    0.000000|   -4.878383|   -2.370176|
|           0|          84|    3.503310|    0.000000|   -4.896189|   -2.387982|
|           0|          85|    3.498279|    0.000000|   -4.913949|   -2.405742|
|           0|          86|    3.493331|    0.000000|   -4.931714|   -2.423507|
|           0|          87|    3.488529|    0.000000|   -4.949533|   -2.441326|
|           0|          88|    3.483928|    0.000000|   -4.967451|   -2.459244|
|           0|          89|    3.479577|    0.000000|   -4.985508|   -2.477302|
|           0|          90|    3.475512|    0.000000|   -5.003731|   -2.495524|
|           0|          91|    3.471762|    0.000000|   -5.022126|   -2.513919|
|           0|          92|    3.468346|    0.000000|   -5.040647|   -2.532440|
|           0|          93|    3.465279|    0.000000|   -5.059344|   -2.551137|
|           0|          94|    3.462565|    0.000000|   -5.078200|   -2.569993|
|           0|          95|    3.460205|    0.000000|   -5.097190|   -2.588983|
|           0|          96|    3.458190|    0.000000|   -5.116291|   -2.608084|
|           0|          97|    3.456509|    0.000000|   -5.135469|   -2.627262|
|           0|          98|    3.455146|    0.000000|   -5.154716|   -2.646509|
|           0|          99|    3.454079|    0.000000|   -5.174018|   -2.665811|
+-----------------------------------------------------------------------+
|        File Writing Summary       |              Filename             |
+-----------------------------------------------------------------------+
|SU2 binary restart                 |output_restart/restart_flow_00000.dat|
|Paraview                           |output_flow/flow_00000.vtu         |
|Paraview surface                   |output_surface_flow/surface_flow_00000.vtu|
+-----------------------------------------------------------------------+
+-----------------------------------------------------------------------------+
|   Time_Iter|  Inner_Iter|          CD|          CL|    rms[Rho]| relrms[Rho]|
+-----------------------------------------------------------------------------+
|           1|           0|    3.433963|    0.000000|   -3.583757|    0.000000|
|           1|           1|    3.397980|    0.000000|   -3.621030|   -0.037274|
|           1|           2|    3.356566|    0.000000|   -3.656427|   -0.072670|
|           1|           3|    3.310513|    0.000000|   -3.689889|   -0.106133|
|           1|           4|    3.258729|    0.000000|   -3.721410|   -0.137654|
|           1|           5|    3.200836|    0.000000|   -3.750833|   -0.167077|
|           1|           6|    3.137291|    0.000000|   -3.777843|   -0.194086|
|           1|           7|    3.069039|    0.000000|   -3.802165|   -0.218408|
|           1|           8|    2.997288|    0.000000|   -3.823762|   -0.240005|
|           1|           9|    2.923386|    0.000000|   -3.842894|   -0.259138|
|           1|          10|    2.848725|    0.000000|   -3.860058|   -0.276301|
|           1|          11|    2.774643|    0.000000|   -3.875867|   -0.292110|
|           1|          12|    2.702330|    0.000000|   -3.890955|   -0.307198|
|           1|          13|    2.632797|    0.000000|   -3.905920|   -0.322164|
|           1|          14|    2.566858|    0.000000|   -3.921283|   -0.337526|
|           1|          15|    2.505116|   -0.000000|   -3.937459|   -0.353702|
|           1|          16|    2.447994|   -0.000000|   -3.954749|   -0.370992|
|           1|          17|    2.395746|   -0.000000|   -3.973325|   -0.389568|
|           1|          18|    2.348488|   -0.000000|   -3.993237|   -0.409480|
|           1|          19|    2.306229|   -0.000000|   -4.014401|   -0.430645|
|           1|          20|    2.268886|   -0.000000|   -4.036628|   -0.452872|
|           1|          21|    2.236308|   -0.000000|   -4.059634|   -0.475878|
|           1|          22|    2.208287|   -0.000000|   -4.083075|   -0.499318|
|           1|          23|    2.184570|   -0.000000|   -4.106578|   -0.522822|
|           1|          24|    2.164866|   -0.000000|   -4.129768|   -0.546011|
|           1|          25|    2.148853|   -0.000000|   -4.152277|   -0.568520|
|           1|          26|    2.136191|   -0.000000|   -4.173743|   -0.589986|
|           1|          27|    2.126526|   -0.000000|   -4.193747|   -0.609990|
|           1|          28|    2.119507|   -0.000000|   -4.211804|   -0.628048|
|           1|          29|    2.114785|   -0.000000|   -4.227341|   -0.643584|
|           1|          30|    2.112026|   -0.000000|   -4.239730|   -0.655973|
|           1|          31|    2.110918|   -0.000000|   -4.248369|   -0.664612|
|           1|          32|    2.111176|   -0.000000|   -4.252777|   -0.669021|
|           1|          33|    2.112545|   -0.000000|   -4.252779|   -0.669023|
|           1|          34|    2.114795|   -0.000000|   -4.248568|   -0.664811|
|           1|          35|    2.117733|   -0.000000|   -4.240672|   -0.656915|
|           1|          36|    2.121194|   -0.000000|   -4.229930|   -0.646174|
|           1|          37|    2.125022|   -0.000000|   -4.217088|   -0.633332|
|           1|          38|    2.129079|   -0.000000|   -4.202848|   -0.619092|
|           1|          39|    2.133244|   -0.000000|   -4.187653|   -0.603896|
|           1|          40|    2.137416|   -0.000000|   -4.171935|   -0.588179|
|           1|          41|    2.141509|   -0.000000|   -4.155900|   -0.572144|
|           1|          42|    2.145453|   -0.000000|   -4.139752|   -0.555996|
|           1|          43|    2.149187|   -0.000000|   -4.123655|   -0.539898|
|           1|          44|    2.152642|    0.000002|   -4.107688|   -0.523932|
|           1|          45|    2.155860|   -0.000001|   -4.091789|   -0.508032|
|           1|          46|    2.158759|    0.000001|   -4.076177|   -0.492420|
|           1|          47|    2.160046|    0.000002|   -4.060992|   -0.477236|
|           1|          48|    2.161863|    0.000002|   -4.056363|   -0.472607|
|           1|          49|    2.163842|    0.000017|   -4.048504|   -0.464747|
|           1|          50|    2.164659|    0.000011|   -4.033397|   -0.449640|
|           1|          51|    2.165782|    0.000007|   -4.029175|   -0.445419|
|           1|          52|    2.166626|   -0.000001|   -4.023021|   -0.439264|
|           1|          53|    2.166893|    0.000001|   -4.010926|   -0.427170|
|           1|          54|    2.167220|   -0.000001|   -4.009105|   -0.425349|
|           1|          55|    2.166759|   -0.000019|   -4.005159|   -0.421403|
|           1|          56|    2.166521|   -0.000017|   -3.995064|   -0.411307|
|           1|          57|    2.166167|   -0.000016|   -3.994985|   -0.411228|
|           1|          58|    2.165007|    0.000232|   -3.992647|   -0.408891|
|           1|          59|    2.164337|    0.000129|   -3.984503|   -0.400747|
|           1|          60|    2.163253|    0.000051|   -3.986171|   -0.402414|
|           1|          61|    2.162215|   -0.000060|   -3.986041|   -0.402284|
|           1|          62|    2.161203|   -0.000051|   -3.979560|   -0.395804|
|           1|          63|    2.159462|   -0.000055|   -3.982544|   -0.398787|
|           1|          64|    2.157547|   -0.000269|   -3.984051|   -0.400295|
|           1|          65|    2.156173|   -0.000185|   -3.979712|   -0.395955|
|           1|          66|    2.153946|   -0.000117|   -3.984261|   -0.400505|
|           1|          67|    2.152166|    0.000098|   -3.987480|   -0.403724|
|           1|          68|    2.150074|   -0.000047|   -3.987306|   -0.403550|
|           1|          69|    2.147215|   -0.000128|   -3.994926|   -0.411169|
|           1|          70|    2.145809|   -0.000135|   -4.000026|   -0.416270|
|           1|          71|    2.144011|   -0.000134|   -4.005712|   -0.421956|
|           1|          72|    2.141142|   -0.000189|   -4.009386|   -0.425629|
|           1|          73|    2.139879|   -0.000165|   -4.009173|   -0.425416|
|           1|          74|    2.138152|   -0.000158|   -4.015696|   -0.431939|
|           1|          75|    2.135419|   -0.000376|   -4.023808|   -0.440051|
|           1|          76|    2.134155|   -0.000268|   -4.027699|   -0.443943|
|           1|          77|    2.132199|   -0.000211|   -4.036322|   -0.452565|
|           1|          78|    2.129501|    0.000081|   -4.043282|   -0.459525|
|           1|          79|    2.128171|   -0.000017|   -4.044175|   -0.460418|
|           1|          80|    2.126114|   -0.000094|   -4.050960|   -0.467203|
|           1|          81|    2.123872|   -0.000202|   -4.056177|   -0.472421|
|           1|          82|    2.122607|   -0.000199|   -4.057906|   -0.474150|
|           1|          83|    2.120597|   -0.000221|   -4.065291|   -0.481535|
|           1|          84|    2.119169|    0.000363|   -4.071632|   -0.487876|
|           1|          85|    2.117706|    0.000090|   -4.075562|   -0.491806|
|           1|          86|    2.115595|   -0.000102|   -4.085819|   -0.502062|
|           1|          87|    2.114582|   -0.000160|   -4.095309|   -0.511552|
|           1|          88|    2.113262|   -0.000213|   -4.104011|   -0.520255|
|           1|          89|    2.111449|   -0.000093|   -4.111357|   -0.527600|
|           1|          90|    2.110613|   -0.000145|   -4.116584|   -0.532827|
|           1|          91|    2.109410|   -0.000211|   -4.126466|   -0.542709|
|           1|          92|    2.108200|   -0.000514|   -4.138460|   -0.554703|
|           1|          93|    2.107197|   -0.000485|   -4.148531|   -0.564774|
|           1|          94|    2.105516|   -0.000457|   -4.159813|   -0.576057|
|           1|          95|    2.103472|   -0.000664|   -4.168858|   -0.585101|
|           1|          96|    2.102286|   -0.000581|   -4.172229|   -0.588472|
|           1|          97|    2.100367|   -0.000542|   -4.179850|   -0.596093|
|           1|          98|    2.097566|   -0.000513|   -4.185846|   -0.602090|
|           1|          99|    2.096325|   -0.000537|   -4.188806|   -0.605049|
+-----------------------------------------------------------------------------+
|   Time_Iter|  Inner_Iter|          CD|          CL|    rms[Rho]| relrms[Rho]|
+-----------------------------------------------------------------------------+
|           2|           0|    2.095783|   -0.000384|   -3.576849|    0.000000|
|           2|           1|    2.097703|   -0.000484|   -3.619256|   -0.042407|
|           2|           2|    2.101574|   -0.000547|   -3.639765|   -0.062916|
|           2|           3|    2.106077|   -0.000432|   -3.668702|   -0.091853|
|           2|           4|    2.108286|   -0.000510|   -3.704711|   -0.127862|
|           2|           5|    2.110918|   -0.000572|   -3.722482|   -0.145633|
|           2|           6|    2.111198|   -0.000407|   -3.747882|   -0.171033|
|           2|           7|    2.110569|   -0.000516|   -3.779027|   -0.202178|
|           2|           8|    2.107374|   -0.000615|   -3.794817|   -0.217968|
|           2|           9|    2.098156|   -0.000819|   -3.816630|   -0.239782|
|           2|          10|    2.093008|   -0.000819|   -3.841920|   -0.265071|
|           2|          11|    2.082802|   -0.000827|   -3.855030|   -0.278182|
|           2|          12|    2.065712|   -0.000849|   -3.872540|   -0.295691|
|           2|          13|    2.057246|   -0.000860|   -3.891595|   -0.314746|
|           2|          14|    2.042812|   -0.000868|   -3.902304|   -0.325455|
|           2|          15|    2.022390|   -0.000862|   -3.916133|   -0.339284|
|           2|          16|    2.012959|   -0.000863|   -3.929712|   -0.352864|
|           2|          17|    1.998128|   -0.000857|   -3.938453|   -0.361604|
|           2|          18|    1.978969|   -0.000842|   -3.948860|   -0.372011|
|           2|          19|    1.970513|   -0.000832|   -3.956842|   -0.379993|
|           2|          20|    1.957809|   -0.000817|   -3.963536|   -0.386687|
|           2|          21|    1.942259|   -0.000805|   -3.970069|   -0.393221|
|           2|          22|    1.935542|   -0.000798|   -3.971737|   -0.394889|
|           2|          23|    1.925755|   -0.000788|   -3.975967|   -0.399118|
|           2|          24|    1.914016|   -0.000791|   -3.978269|   -0.401420|
|           2|          25|    1.909190|   -0.000784|   -3.974070|   -0.397222|
|           2|          26|    1.902323|   -0.000780|   -3.975953|   -0.399104|
|           2|          27|    1.894570|   -0.000793|   -3.974664|   -0.397815|
|           2|          28|    1.891308|   -0.000796|   -3.966057|   -0.389208|
|           2|          29|    1.886688|   -0.000809|   -3.966711|   -0.389862|
|           2|          30|    1.881374|   -0.000850|   -3.963773|   -0.386925|
|           2|          31|    1.879220|   -0.000858|   -3.953600|   -0.376751|
|           2|          32|    1.876188|   -0.000878|   -3.954176|   -0.377327|
|           2|          33|    1.872699|   -0.000918|   -3.951270|   -0.374421|
|           2|          34|    1.871272|   -0.000929|   -3.941597|   -0.364748|
|           2|          35|    1.869252|   -0.000949|   -3.943147|   -0.366298|
|           2|          36|    1.866826|   -0.000935|   -3.941528|   -0.364680|
|           2|          37|    1.865782|   -0.000965|   -3.933621|   -0.356773|
|           2|          38|    1.864278|   -0.000990|   -3.936695|   -0.359846|
|           2|          39|    1.862249|   -0.001015|   -3.936989|   -0.360140|
|           2|          40|    1.861361|   -0.001019|   -3.931168|   -0.354319|
|           2|          41|    1.860013|   -0.001026|   -3.935823|   -0.358974|
|           2|          42|    1.858163|   -0.001049|   -3.937720|   -0.360871|
|           2|          43|    1.857263|   -0.001047|   -3.933558|   -0.356709|
|           2|          44|    1.855783|   -0.001049|   -3.939130|   -0.362281|
|           2|          45|    1.853566|   -0.001054|   -3.942228|   -0.365379|
|           2|          46|    1.852458|   -0.001055|   -3.939458|   -0.362610|
|           2|          47|    1.850641|   -0.001056|   -3.945958|   -0.369109|
|           2|          48|    1.847949|   -0.001049|   -3.950187|   -0.373338|
|           2|          49|    1.846622|   -0.001055|   -3.949007|   -0.372159|
|           2|          50|    1.844469|   -0.001059|   -3.956696|   -0.379847|
|           2|          51|    1.841412|   -0.001068|   -3.962326|   -0.385478|
|           2|          52|    1.838275|   -0.001071|   -3.962612|   -0.385764|
|           2|          53|    1.835116|   -0.001079|   -3.965547|   -0.388699|
|           2|          54|    1.832007|   -0.001088|   -3.970826|   -0.393977|
|           2|          55|    1.829013|   -0.001097|   -3.976098|   -0.399250|
|           2|          56|    1.826191|   -0.001109|   -3.980290|   -0.403441|
|           2|          57|    1.823586|   -0.001120|   -3.984241|   -0.407392|
|           2|          58|    1.821245|   -0.001127|   -3.988817|   -0.411969|
|           2|          59|    1.819189|   -0.001135|   -3.994627|   -0.417779|
|           2|          60|    1.817424|   -0.001143|   -4.001195|   -0.424346|
|           2|          61|    1.815946|   -0.001151|   -4.008229|   -0.431380|
|           2|          62|    1.814735|   -0.001157|   -4.015557|   -0.438708|
|           2|          63|    1.813783|   -0.001161|   -4.022917|   -0.446068|
|           2|          64|    1.813079|   -0.001161|   -4.030453|   -0.453604|
|           2|          65|    1.812609|   -0.001161|   -4.038103|   -0.461255|
|           2|          66|    1.812350|   -0.001160|   -4.045709|   -0.468860|
|           2|          67|    1.812278|   -0.001159|   -4.053538|   -0.476689|
|           2|          68|    1.812369|   -0.001157|   -4.061322|   -0.484473|
|           2|          69|    1.812595|   -0.001153|   -4.069318|   -0.492469|
|           2|          70|    1.812941|   -0.001148|   -4.077431|   -0.500582|
|           2|          71|    1.813390|   -0.001143|   -4.085508|   -0.508660|
|           2|          72|    1.813924|   -0.001138|   -4.093443|   -0.516594|
|           2|          73|    1.814523|   -0.001132|   -4.101323|   -0.524474|
|           2|          74|    1.815169|   -0.001127|   -4.109033|   -0.532185|
|           2|          75|    1.815843|   -0.001120|   -4.116799|   -0.539951|
|           2|          76|    1.816527|   -0.001114|   -4.124449|   -0.547600|
|           2|          77|    1.817213|   -0.001108|   -4.132040|   -0.555191|
|           2|          78|    1.817891|   -0.001102|   -4.139564|   -0.562715|
|           2|          79|    1.818556|   -0.001096|   -4.146993|   -0.570144|
|           2|          80|    1.819200|   -0.001092|   -4.154396|   -0.577547|
|           2|          81|    1.819820|   -0.001085|   -4.161858|   -0.585009|
|           2|          82|    1.820418|   -0.001078|   -4.169231|   -0.592382|
|           2|          83|    1.821002|   -0.001073|   -4.176565|   -0.599716|
|           2|          84|    1.821579|   -0.001069|   -4.183863|   -0.607014|
|           2|          85|    1.822160|   -0.001065|   -4.191114|   -0.614265|
|           2|          86|    1.822754|   -0.001061|   -4.198308|   -0.621459|
|           2|          87|    1.823368|   -0.001055|   -4.205551|   -0.628703|
|           2|          88|    1.824011|   -0.001049|   -4.212732|   -0.635883|
|           2|          89|    1.824694|   -0.001044|   -4.219986|   -0.643138|
|           2|          90|    1.825429|   -0.001041|   -4.227169|   -0.650320|
|           2|          91|    1.826221|   -0.001037|   -4.234346|   -0.657497|
|           2|          92|    1.827076|   -0.001033|   -4.241514|   -0.664665|
|           2|          93|    1.827994|   -0.001029|   -4.248675|   -0.671826|
|           2|          94|    1.828975|   -0.001022|   -4.255823|   -0.678974|
|           2|          95|    1.830017|   -0.001016|   -4.263022|   -0.686174|
|           2|          96|    1.831121|   -0.001011|   -4.270162|   -0.693313|
|           2|          97|    1.832288|   -0.001007|   -4.277255|   -0.700406|
|           2|          98|    1.833515|   -0.001003|   -4.284420|   -0.707571|
|           2|          99|    1.834795|   -0.000998|   -4.291495|   -0.714647|
+-----------------------------------------------------------------------------+
|   Time_Iter|  Inner_Iter|          CD|          CL|    rms[Rho]| relrms[Rho]|
+-----------------------------------------------------------------------------+
|           3|           0|    1.838825|   -0.000994|   -3.547584|    0.000000|
|           3|           1|    1.842368|   -0.000989|   -3.589945|   -0.042361|
|           3|           2|    1.845587|   -0.000981|   -3.629041|   -0.081457|
|           3|           3|    1.848598|   -0.000973|   -3.664951|   -0.117367|
|           3|           4|    1.851433|   -0.000965|   -3.698147|   -0.150562|
|           3|           5|    1.854038|   -0.000959|   -3.729151|   -0.181567|
|           3|           6|    1.856257|   -0.000953|   -3.758281|   -0.210697|
|           3|           7|    1.857837|   -0.000946|   -3.785709|   -0.238124|
|           3|           8|    1.858465|   -0.000940|   -3.811448|   -0.263863|
|           3|           9|    1.857832|   -0.000932|   -3.835512|   -0.287927|
|           3|          10|    1.855711|   -0.000923|   -3.857903|   -0.310319|
|           3|          11|    1.852025|   -0.000911|   -3.878718|   -0.331133|
|           3|          12|    1.846891|   -0.000899|   -3.897986|   -0.350402|
|           3|          13|    1.840617|   -0.000887|   -3.915773|   -0.368188|
|           3|          14|    1.833642|   -0.000876|   -3.932079|   -0.384495|
|           3|          15|    1.826463|   -0.000865|   -3.946993|   -0.399409|
|           3|          16|    1.819546|   -0.000854|   -3.960625|   -0.413040|
|           3|          17|    1.813272|   -0.000843|   -3.973143|   -0.425559|
|           3|          18|    1.807888|   -0.000832|   -3.984708|   -0.437124|
|           3|          19|    1.803511|   -0.000822|   -3.995408|   -0.447823|
|           3|          20|    1.800135|   -0.000812|   -4.005273|   -0.457688|
|           3|          21|    1.797664|   -0.000800|   -4.014229|   -0.466644|
|           3|          22|    1.795950|   -0.000789|   -4.022161|   -0.474576|
|           3|          23|    1.794820|   -0.000780|   -4.028960|   -0.481376|
|           3|          24|    1.794092|   -0.000771|   -4.034558|   -0.486974|
|           3|          25|    1.793593|   -0.000764|   -4.038939|   -0.491354|
|           3|          26|    1.793167|   -0.000757|   -4.042166|   -0.494582|
|           3|          27|    1.792681|   -0.000751|   -4.044376|   -0.496791|
|           3|          28|    1.792025|   -0.000746|   -4.045752|   -0.498168|
|           3|          29|    1.791116|   -0.000741|   -4.046481|   -0.498896|
|           3|          30|    1.789898|   -0.000735|   -4.046758|   -0.499173|
|           3|          31|    1.788331|   -0.000730|   -4.046767|   -0.499183|
|           3|          32|    1.786416|   -0.000726|   -4.046688|   -0.499104|
|           3|          33|    1.784191|   -0.000724|   -4.046686|   -0.499102|
|           3|          34|    1.781706|   -0.000723|   -4.046926|   -0.499341|
|           3|          35|    1.779024|   -0.000722|   -4.047541|   -0.499956|
|           3|          36|    1.776211|   -0.000720|   -4.048659|   -0.501074|
|           3|          37|    1.773337|   -0.000720|   -4.050388|   -0.502804|
|           3|          38|    1.770496|   -0.000720|   -4.052812|   -0.505228|
|           3|          39|    1.767762|   -0.000715|   -4.055962|   -0.508377|
|           3|          40|    1.765175|   -0.000709|   -4.059862|   -0.512278|
|           3|          41|    1.762813|   -0.000704|   -4.064518|   -0.516934|
|           3|          42|    1.760755|   -0.000700|   -4.069925|   -0.522341|
|           3|          43|    1.759051|   -0.000698|   -4.076037|   -0.528453|
|           3|          44|    1.757716|   -0.000695|   -4.082789|   -0.535205|
|           3|          45|    1.756758|   -0.000691|   -4.090131|   -0.542547|
|           3|          46|    1.756181|   -0.000687|   -4.098031|   -0.550447|
|           3|          47|    1.755968|   -0.000687|   -4.106486|   -0.558901|
|           3|          48|    1.756084|   -0.000680|   -4.115520|   -0.567936|
|           3|          49|    1.756478|   -0.000671|   -4.125128|   -0.577543|
|           3|          50|    1.757144|   -0.000663|   -4.135236|   -0.587651|
|           3|          51|    1.758078|   -0.000661|   -4.145695|   -0.598110|
|           3|          52|    1.759238|   -0.000658|   -4.156352|   -0.608767|
|           3|          53|    1.760584|   -0.000655|   -4.167182|   -0.619598|
|           3|          54|    1.762083|   -0.000652|   -4.178413|   -0.630829|
|           3|          55|    1.763721|   -0.000645|   -4.190308|   -0.642724|
|           3|          56|    1.765461|   -0.000639|   -4.202913|   -0.655329|
|           3|          57|    1.767279|   -0.000644|   -4.215890|   -0.668306|
|           3|          58|    1.769142|   -0.000638|   -4.228781|   -0.681197|
|           3|          59|    1.771034|   -0.000631|   -4.241402|   -0.693817|
|           3|          60|    1.772950|   -0.000629|   -4.253923|   -0.706339|
|           3|          61|    1.774905|   -0.000629|   -4.266533|   -0.718949|
|           3|          62|    1.776888|   -0.000627|   -4.279838|   -0.732254|
|           3|          63|    1.778884|   -0.000625|   -4.294173|   -0.746589|
|           3|          64|    1.780880|   -0.000623|   -4.309199|   -0.761615|
|           3|          65|    1.782876|   -0.000622|   -4.324112|   -0.776528|
|           3|          66|    1.784842|   -0.000620|   -4.338357|   -0.790773|
|           3|          67|    1.786755|   -0.000616|   -4.351964|   -0.804380|
|           3|          68|    1.788593|   -0.000611|   -4.365508|   -0.817923|
|           3|          69|    1.790337|   -0.000606|   -4.379486|   -0.831902|
|           3|          70|    1.791985|   -0.000603|   -4.394293|   -0.846708|
|           3|          71|    1.793534|   -0.000604|   -4.409868|   -0.862283|
|           3|          72|    1.794973|   -0.000602|   -4.425729|   -0.878144|
|           3|          73|    1.796288|   -0.000599|   -4.441510|   -0.893926|
|           3|          74|    1.797457|   -0.000594|   -4.456830|   -0.909245|
|           3|          75|    1.798466|   -0.000590|   -4.471599|   -0.924015|
|           3|          76|    1.799311|   -0.000588|   -4.486002|   -0.938417|
|           3|          77|    1.799981|   -0.000583|   -4.500336|   -0.952752|
|           3|          78|    1.800467|   -0.000580|   -4.514872|   -0.967288|
|           3|          79|    1.800773|   -0.000574|   -4.529768|   -0.982183|
|           3|          80|    1.800905|   -0.000570|   -4.544962|   -0.997378|
|           3|          81|    1.800885|   -0.000566|   -4.560331|   -1.012747|
|           3|          82|    1.800730|   -0.000563|   -4.575710|   -1.028126|
|           3|          83|    1.800462|   -0.000559|   -4.590930|   -1.043345|
|           3|          84|    1.800089|   -0.000555|   -4.606019|   -1.058434|
|           3|          85|    1.799621|   -0.000550|   -4.620945|   -1.073361|
|           3|          86|    1.799074|   -0.000545|   -4.635730|   -1.088145|
|           3|          87|    1.798465|   -0.000541|   -4.650425|   -1.102840|
|           3|          88|    1.797814|   -0.000537|   -4.665084|   -1.117499|
|           3|          89|    1.797138|   -0.000534|   -4.679722|   -1.132138|
|           3|          90|    1.796451|   -0.000531|   -4.694334|   -1.146749|
|           3|          91|    1.795771|   -0.000529|   -4.708846|   -1.161261|
|           3|          92|    1.795108|   -0.000527|   -4.723148|   -1.175564|
|           3|          93|    1.794476|   -0.000526|   -4.737164|   -1.189580|
|           3|          94|    1.793886|   -0.000525|   -4.750815|   -1.203230|
|           3|          95|    1.793346|   -0.000525|   -4.763987|   -1.216403|
|           3|          96|    1.792856|   -0.000525|   -4.776762|   -1.229178|
|           3|          97|    1.792414|   -0.000526|   -4.789267|   -1.241682|
|           3|          98|    1.792022|   -0.000526|   -4.801563|   -1.253979|
|           3|          99|    1.791680|   -0.000527|   -4.813716|   -1.266131|
+-----------------------------------------------------------------------------+
|   Time_Iter|  Inner_Iter|          CD|          CL|    rms[Rho]| relrms[Rho]|
+-----------------------------------------------------------------------------+
|           4|           0|    1.790960|   -0.000521|   -3.511034|    0.000000|
|           4|           1|    1.790122|   -0.000516|   -3.555285|   -0.044251|
|           4|           2|    1.788895|   -0.000508|   -3.597744|   -0.086710|
|           4|           3|    1.787201|   -0.000498|   -3.638698|   -0.127664|
|           4|           4|    1.785131|   -0.000485|   -3.678504|   -0.167470|
|           4|           5|    1.782855|   -0.000470|   -3.717379|   -0.206344|
|           4|           6|    1.780531|   -0.000454|   -3.755379|   -0.244344|
|           4|           7|    1.778253|   -0.000439|   -3.792454|   -0.281419|
|           4|           8|    1.776014|   -0.000426|   -3.828516|   -0.317482|
|           4|           9|    1.773713|   -0.000416|   -3.863496|   -0.352461|
|           4|          10|    1.771186|   -0.000409|   -3.897403|   -0.386369|
|           4|          11|    1.768250|   -0.000404|   -3.930322|   -0.419288|
|           4|          12|    1.764747|   -0.000403|   -3.962389|   -0.451355|
|           4|          13|    1.760589|   -0.000403|   -3.993762|   -0.482728|
|           4|          14|    1.755773|   -0.000405|   -4.024603|   -0.513568|
|           4|          15|    1.750382|   -0.000408|   -4.055096|   -0.544061|
|           4|          16|    1.744570|   -0.000412|   -4.085455|   -0.574421|
|           4|          17|    1.738526|   -0.000415|   -4.115888|   -0.604854|
|           4|          18|    1.732449|   -0.000418|   -4.146580|   -0.635546|
|           4|          19|    1.726516|   -0.000420|   -4.177644|   -0.666610|
|           4|          20|    1.720866|   -0.000422|   -4.209103|   -0.698069|
|           4|          21|    1.715594|   -0.000423|   -4.240887|   -0.729853|
|           4|          22|    1.710753|   -0.000424|   -4.272848|   -0.761813|
|           4|          23|    1.706365|   -0.000425|   -4.304769|   -0.793734|
|           4|          24|    1.702427|   -0.000425|   -4.336411|   -0.825376|
|           4|          25|    1.698925|   -0.000425|   -4.367541|   -0.856506|
|           4|          26|    1.695838|   -0.000425|   -4.397959|   -0.886924|
|           4|          27|    1.693146|   -0.000424|   -4.427524|   -0.916489|
|           4|          28|    1.690830|   -0.000422|   -4.456145|   -0.945111|
|           4|          29|    1.688872|   -0.000421|   -4.483777|   -0.972743|
|           4|          30|    1.687258|   -0.000419|   -4.510402|   -0.999368|
|           4|          31|    1.685971|   -0.000416|   -4.536013|   -1.024978|
|           4|          32|    1.684999|   -0.000414|   -4.560606|   -1.049572|
|           4|          33|    1.684329|   -0.000411|   -4.584151|   -1.073116|
|           4|          34|    1.683948|   -0.000407|   -4.606632|   -1.095598|
|           4|          35|    1.683843|   -0.000404|   -4.628027|   -1.116993|
|           4|          36|    1.683998|   -0.000401|   -4.648313|   -1.137278|
|           4|          37|    1.684400|   -0.000398|   -4.667504|   -1.156469|
|           4|          38|    1.685029|   -0.000394|   -4.685618|   -1.174584|
|           4|          39|    1.685864|   -0.000392|   -4.702662|   -1.191628|
|           4|          40|    1.686882|   -0.000389|   -4.718645|   -1.207611|
|           4|          41|    1.688053|   -0.000387|   -4.733579|   -1.222545|
|           4|          42|    1.689346|   -0.000386|   -4.747501|   -1.236467|
|           4|          43|    1.690727|   -0.000385|   -4.760456|   -1.249422|
|           4|          44|    1.692157|   -0.000384|   -4.772506|   -1.261471|
|           4|          45|    1.693600|   -0.000384|   -4.783723|   -1.272689|
|           4|          46|    1.695016|   -0.000385|   -4.794190|   -1.283155|
|           4|          47|    1.696369|   -0.000386|   -4.803979|   -1.292944|
|           4|          48|    1.697626|   -0.000387|   -4.813154|   -1.302119|
|           4|          49|    1.698759|   -0.000390|   -4.821775|   -1.310741|
|           4|          50|    1.699743|   -0.000392|   -4.829901|   -1.318867|
|           4|          51|    1.700558|   -0.000395|   -4.837585|   -1.326551|
|           4|          52|    1.701190|   -0.000399|   -4.844884|   -1.333850|
|           4|          53|    1.701632|   -0.000402|   -4.851870|   -1.340835|
|           4|          54|    1.701881|   -0.000406|   -4.858624|   -1.347589|
|           4|          55|    1.701939|   -0.000410|   -4.865240|   -1.354206|
|           4|          56|    1.701812|   -0.000415|   -4.871826|   -1.360792|
|           4|          57|    1.701509|   -0.000419|   -4.878484|   -1.367450|
|           4|          58|    1.701043|   -0.000424|   -4.885310|   -1.374276|
|           4|          59|    1.700428|   -0.000428|   -4.892395|   -1.381360|
|           4|          60|    1.699680|   -0.000432|   -4.899812|   -1.388777|
|           4|          61|    1.698815|   -0.000436|   -4.907619|   -1.396584|
|           4|          62|    1.697850|   -0.000440|   -4.915856|   -1.404822|
|           4|          63|    1.696800|   -0.000444|   -4.924546|   -1.413512|
|           4|          64|    1.695681|   -0.000448|   -4.933693|   -1.422658|
|           4|          65|    1.694508|   -0.000452|   -4.943291|   -1.432256|
|           4|          66|    1.693293|   -0.000455|   -4.953332|   -1.442298|
|           4|          67|    1.692049|   -0.000459|   -4.963802|   -1.452768|
|           4|          68|    1.690787|   -0.000462|   -4.974683|   -1.463649|
|           4|          69|    1.689516|   -0.000465|   -4.985955|   -1.474921|
|           4|          70|    1.688244|   -0.000467|   -4.997593|   -1.486559|
|           4|          71|    1.686978|   -0.000469|   -5.009571|   -1.498537|
|           4|          72|    1.685723|   -0.000471|   -5.021864|   -1.510830|
|           4|          73|    1.684483|   -0.000473|   -5.034440|   -1.523406|
|           4|          74|    1.683261|   -0.000474|   -5.047265|   -1.536231|
|           4|          75|    1.682059|   -0.000475|   -5.060306|   -1.549272|
|           4|          76|    1.680879|   -0.000475|   -5.073534|   -1.562500|
|           4|          77|    1.679721|   -0.000476|   -5.086914|   -1.575880|
|           4|          78|    1.678585|   -0.000475|   -5.100409|   -1.589375|
|           4|          79|    1.677471|   -0.000475|   -5.113980|   -1.602945|
|           4|          80|    1.676377|   -0.000474|   -5.127582|   -1.616547|
|           4|          81|    1.675302|   -0.000472|   -5.141171|   -1.630136|
|           4|          82|    1.674243|   -0.000471|   -5.154705|   -1.643670|
|           4|          83|    1.673197|   -0.000469|   -5.168146|   -1.657112|
|           4|          84|    1.672161|   -0.000467|   -5.181455|   -1.670420|
|           4|          85|    1.671130|   -0.000464|   -5.194594|   -1.683559|
|           4|          86|    1.670102|   -0.000461|   -5.207527|   -1.696493|
|           4|          87|    1.669071|   -0.000458|   -5.220221|   -1.709186|
|           4|          88|    1.668034|   -0.000455|   -5.232646|   -1.721611|
|           4|          89|    1.666987|   -0.000451|   -5.244767|   -1.733733|
|           4|          90|    1.665925|   -0.000448|   -5.256558|   -1.745524|
|           4|          91|    1.664845|   -0.000444|   -5.267993|   -1.756959|
|           4|          92|    1.663742|   -0.000440|   -5.279049|   -1.768014|
|           4|          93|    1.662612|   -0.000436|   -5.289706|   -1.778671|
|           4|          94|    1.661452|   -0.000431|   -5.299954|   -1.788919|
|           4|          95|    1.660259|   -0.000427|   -5.309793|   -1.798759|
|           4|          96|    1.659030|   -0.000423|   -5.319238|   -1.808204|
|           4|          97|    1.657764|   -0.000418|   -5.328317|   -1.817282|
|           4|          98|    1.656458|   -0.000414|   -5.337068|   -1.826033|
|           4|          99|    1.655112|   -0.000409|   -5.345552|   -1.834518|
+-----------------------------------------------------------------------------+
|   Time_Iter|  Inner_Iter|          CD|          CL|    rms[Rho]| relrms[Rho]|
+-----------------------------------------------------------------------------+
|           5|           0|    1.649852|   -0.000405|   -3.502839|    0.000000|
|           5|           1|    1.644307|   -0.000399|   -3.553243|   -0.050404|
|           5|           2|    1.638369|   -0.000393|   -3.601529|   -0.098690|
|           5|           3|    1.631963|   -0.000388|   -3.647550|   -0.144712|
|           5|           4|    1.625076|   -0.000384|   -3.691462|   -0.188623|
|           5|           5|    1.617804|   -0.000381|   -3.733689|   -0.230850|
|           5|           6|    1.610338|   -0.000378|   -3.774742|   -0.271903|
|           5|           7|    1.602917|   -0.000374|   -3.815046|   -0.312207|
|           5|           8|    1.595745|   -0.000371|   -3.854843|   -0.352004|
|           5|           9|    1.588946|   -0.000367|   -3.894221|   -0.391382|
|           5|          10|    1.582547|   -0.000364|   -3.933191|   -0.430353|
|           5|          11|    1.576501|   -0.000361|   -3.971772|   -0.468933|
|           5|          12|    1.570725|   -0.000358|   -4.010008|   -0.507169|
|           5|          13|    1.565140|   -0.000355|   -4.048006|   -0.545167|
|           5|          14|    1.559702|   -0.000352|   -4.085904|   -0.583065|
|           5|          15|    1.554405|   -0.000349|   -4.123842|   -0.621003|
|           5|          16|    1.549280|   -0.000345|   -4.161947|   -0.659108|
|           5|          17|    1.544385|   -0.000341|   -4.200299|   -0.697460|
|           5|          18|    1.539782|   -0.000336|   -4.238925|   -0.736087|
|           5|          19|    1.535525|   -0.000331|   -4.277777|   -0.774938|
|           5|          20|    1.531648|   -0.000325|   -4.316735|   -0.813896|
|           5|          21|    1.528159|   -0.000319|   -4.355658|   -0.852819|
|           5|          22|    1.525041|   -0.000312|   -4.394343|   -0.891504|
|           5|          23|    1.522257|   -0.000306|   -4.432580|   -0.929741|
|           5|          24|    1.519757|   -0.000299|   -4.470161|   -0.967322|
|           5|          25|    1.517486|   -0.000292|   -4.506894|   -1.004055|
|           5|          26|    1.515391|   -0.000286|   -4.542596|   -1.039757|
|           5|          27|    1.513425|   -0.000279|   -4.577117|   -1.074278|
|           5|          28|    1.511547|   -0.000273|   -4.610306|   -1.107467|
|           5|          29|    1.509726|   -0.000267|   -4.642037|   -1.139198|
|           5|          30|    1.507935|   -0.000261|   -4.672205|   -1.169366|
|           5|          31|    1.506155|   -0.000255|   -4.700764|   -1.197925|
|           5|          32|    1.504366|   -0.000250|   -4.727694|   -1.224855|
|           5|          33|    1.502554|   -0.000245|   -4.753070|   -1.250231|
|           5|          34|    1.500703|   -0.000240|   -4.777014|   -1.274176|
|           5|          35|    1.498796|   -0.000235|   -4.799712|   -1.296873|
|           5|          36|    1.496821|   -0.000231|   -4.821385|   -1.318547|
|           5|          37|    1.494764|   -0.000226|   -4.842254|   -1.339415|
|           5|          38|    1.492613|   -0.000222|   -4.862558|   -1.359720|
|           5|          39|    1.490361|   -0.000218|   -4.882527|   -1.379689|
|           5|          40|    1.488001|   -0.000214|   -4.902329|   -1.399490|
|           5|          41|    1.485531|   -0.000211|   -4.922055|   -1.419216|
|           5|          42|    1.482950|   -0.000207|   -4.941721|   -1.438882|
|           5|          43|    1.480262|   -0.000204|   -4.961279|   -1.458440|
|           5|          44|    1.477471|   -0.000200|   -4.980652|   -1.477813|
|           5|          45|    1.474587|   -0.000197|   -4.999775|   -1.496936|
|           5|          46|    1.471619|   -0.000194|   -5.018630|   -1.515791|
|           5|          47|    1.468579|   -0.000191|   -5.037193|   -1.534354|
|           5|          48|    1.465480|   -0.000188|   -5.055460|   -1.552621|
|           5|          49|    1.462336|   -0.000184|   -5.073454|   -1.570615|
|           5|          50|    1.459161|   -0.000181|   -5.091204|   -1.588365|
|           5|          51|    1.455971|   -0.000178|   -5.108741|   -1.605902|
|           5|          52|    1.452779|   -0.000175|   -5.126097|   -1.623258|
|           5|          53|    1.449599|   -0.000172|   -5.143281|   -1.640442|
|           5|          54|    1.446444|   -0.000169|   -5.160285|   -1.657447|
|           5|          55|    1.443327|   -0.000166|   -5.177082|   -1.674244|
|           5|          56|    1.440259|   -0.000162|   -5.193621|   -1.690782|
|           5|          57|    1.437249|   -0.000159|   -5.209844|   -1.707005|
|           5|          58|    1.434306|   -0.000156|   -5.225653|   -1.722814|
|           5|          59|    1.431438|   -0.000153|   -5.240985|   -1.738147|
|           5|          60|    1.428650|   -0.000151|   -5.255843|   -1.753004|
|           5|          61|    1.425946|   -0.000148|   -5.270224|   -1.767385|
|           5|          62|    1.423331|   -0.000145|   -5.284162|   -1.781323|
|           5|          63|    1.420804|   -0.000142|   -5.297717|   -1.794879|
|           5|          64|    1.418368|   -0.000140|   -5.310927|   -1.808089|
|           5|          65|    1.416022|   -0.000137|   -5.323867|   -1.821028|
|           5|          66|    1.413765|   -0.000135|   -5.336645|   -1.833806|
|           5|          67|    1.411594|   -0.000133|   -5.349343|   -1.846504|
|           5|          68|    1.409507|   -0.000130|   -5.362032|   -1.859194|
|           5|          69|    1.407502|   -0.000128|   -5.374758|   -1.871920|
|           5|          70|    1.405574|   -0.000126|   -5.387549|   -1.884711|
|           5|          71|    1.403721|   -0.000124|   -5.400420|   -1.897581|
|           5|          72|    1.401939|   -0.000122|   -5.413386|   -1.910547|
|           5|          73|    1.400225|   -0.000120|   -5.426466|   -1.923627|
|           5|          74|    1.398576|   -0.000118|   -5.439686|   -1.936847|
|           5|          75|    1.396989|   -0.000116|   -5.453089|   -1.950250|
|           5|          76|    1.395462|   -0.000113|   -5.466700|   -1.963861|
|           5|          77|    1.393995|   -0.000111|   -5.480530|   -1.977691|
|           5|          78|    1.392584|   -0.000109|   -5.494600|   -1.991762|
|           5|          79|    1.391231|   -0.000107|   -5.508926|   -2.006087|
|           5|          80|    1.389933|   -0.000105|   -5.523497|   -2.020658|
|           5|          81|    1.388691|   -0.000103|   -5.538283|   -2.035444|
|           5|          82|    1.387504|   -0.000100|   -5.553229|   -2.050390|
|           5|          83|    1.386373|   -0.000098|   -5.568250|   -2.065411|
|           5|          84|    1.385297|   -0.000096|   -5.583239|   -2.080401|
|           5|          85|    1.384277|   -0.000094|   -5.598089|   -2.095250|
|           5|          86|    1.383311|   -0.000092|   -5.612697|   -2.109858|
|           5|          87|    1.382399|   -0.000089|   -5.626984|   -2.124146|
|           5|          88|    1.381540|   -0.000087|   -5.640901|   -2.138062|
|           5|          89|    1.380733|   -0.000085|   -5.654427|   -2.151588|
|           5|          90|    1.379976|   -0.000083|   -5.667579|   -2.164740|
|           5|          91|    1.379267|   -0.000080|   -5.680397|   -2.177558|
|           5|          92|    1.378602|   -0.000078|   -5.692930|   -2.190091|
|           5|          93|    1.377981|   -0.000076|   -5.705227|   -2.202389|
|           5|          94|    1.377398|   -0.000073|   -5.717330|   -2.214491|
|           5|          95|    1.376852|   -0.000071|   -5.729261|   -2.226422|
|           5|          96|    1.376339|   -0.000068|   -5.741025|   -2.238186|
|           5|          97|    1.375855|   -0.000066|   -5.752618|   -2.249779|
|           5|          98|    1.375398|   -0.000063|   -5.764027|   -2.261188|
|           5|          99|    1.374962|   -0.000061|   -5.775238|   -2.272399|
+-----------------------------------------------------------------------------+
|   Time_Iter|  Inner_Iter|          CD|          CL|    rms[Rho]| relrms[Rho]|
+-----------------------------------------------------------------------------+
|           6|           0|    1.370861|   -0.000056|   -3.534455|    0.000000|
|           6|           1|    1.365888|   -0.000051|   -3.589877|   -0.055422|
|           6|           2|    1.359934|   -0.000045|   -3.642366|   -0.107911|
|           6|           3|    1.353073|   -0.000037|   -3.691916|   -0.157462|
|           6|           4|    1.345474|   -0.000028|   -3.738905|   -0.204450|
|           6|           5|    1.337339|   -0.000018|   -3.784103|   -0.249648|
|           6|           6|    1.328866|   -0.000007|   -3.828416|   -0.293961|
|           6|           7|    1.320236|    0.000006|   -3.872576|   -0.338121|
|           6|           8|    1.311603|    0.000020|   -3.916968|   -0.382513|
|           6|           9|    1.303087|    0.000036|   -3.961627|   -0.427173|
|           6|          10|    1.294769|    0.000053|   -4.006351|   -0.471896|
|           6|          11|    1.286694|    0.000071|   -4.050837|   -0.516382|
|           6|          12|    1.278876|    0.000090|   -4.094839|   -0.560384|
|           6|          13|    1.271317|    0.000109|   -4.138220|   -0.603765|
|           6|          14|    1.264017|    0.000129|   -4.180989|   -0.646534|
|           6|          15|    1.256984|    0.000148|   -4.223286|   -0.688831|
|           6|          16|    1.250243|    0.000166|   -4.265308|   -0.730853|
|           6|          17|    1.243831|    0.000183|   -4.307206|   -0.772751|
|           6|          18|    1.237796|    0.000200|   -4.349039|   -0.814584|
|           6|          19|    1.232189|    0.000215|   -4.390806|   -0.856351|
|           6|          20|    1.227054|    0.000230|   -4.432407|   -0.897952|
|           6|          21|    1.222419|    0.000243|   -4.473683|   -0.939229|
|           6|          22|    1.218295|    0.000255|   -4.514441|   -0.979986|
|           6|          23|    1.214668|    0.000267|   -4.554494|   -1.020039|
|           6|          24|    1.211507|    0.000277|   -4.593634|   -1.059179|
|           6|          25|    1.208759|    0.000287|   -4.631696|   -1.097241|
|           6|          26|    1.206365|    0.000296|   -4.668507|   -1.134052|
|           6|          27|    1.204255|    0.000305|   -4.703959|   -1.169504|
|           6|          28|    1.202362|    0.000313|   -4.738002|   -1.203547|
|           6|          29|    1.200625|    0.000321|   -4.770619|   -1.236164|
|           6|          30|    1.198987|    0.000328|   -4.801827|   -1.267372|
|           6|          31|    1.197404|    0.000336|   -4.831686|   -1.297231|
|           6|          32|    1.195841|    0.000342|   -4.860268|   -1.325813|
|           6|          33|    1.194271|    0.000349|   -4.887672|   -1.353217|
|           6|          34|    1.192678|    0.000355|   -4.913993|   -1.379538|
|           6|          35|    1.191049|    0.000361|   -4.939234|   -1.404779|
|           6|          36|    1.189380|    0.000366|   -4.963435|   -1.428980|
|           6|          37|    1.187670|    0.000372|   -4.986691|   -1.452236|
|           6|          38|    1.185921|    0.000376|   -5.009085|   -1.474630|
|           6|          39|    1.184138|    0.000381|   -5.030705|   -1.496250|
|           6|          40|    1.182326|    0.000385|   -5.051649|   -1.517194|
|           6|          41|    1.180494|    0.000389|   -5.072043|   -1.537588|
|           6|          42|    1.178650|    0.000393|   -5.092038|   -1.557583|
|           6|          43|    1.176803|    0.000397|   -5.111841|   -1.577386|
|           6|          44|    1.174963|    0.000400|   -5.131617|   -1.597162|
|           6|          45|    1.173139|    0.000403|   -5.151566|   -1.617111|
|           6|          46|    1.171340|    0.000406|   -5.171798|   -1.637343|
|           6|          47|    1.169574|    0.000409|   -5.192347|   -1.657892|
|           6|          48|    1.167850|    0.000412|   -5.213248|   -1.678793|
|           6|          49|    1.166175|    0.000414|   -5.234438|   -1.699983|
|           6|          50|    1.164554|    0.000417|   -5.255855|   -1.721400|
|           6|          51|    1.162992|    0.000419|   -5.277350|   -1.742895|
|           6|          52|    1.161495|    0.000421|   -5.298735|   -1.764280|
|           6|          53|    1.160066|    0.000423|   -5.319781|   -1.785326|
|           6|          54|    1.158708|    0.000425|   -5.340268|   -1.805813|
|           6|          55|    1.157423|    0.000427|   -5.360021|   -1.825566|
|           6|          56|    1.156214|    0.000429|   -5.378937|   -1.844482|
|           6|          57|    1.155083|    0.000431|   -5.397002|   -1.862547|
|           6|          58|    1.154029|    0.000433|   -5.414236|   -1.879781|
|           6|          59|    1.153054|    0.000434|   -5.430627|   -1.896172|
|           6|          60|    1.152157|    0.000436|   -5.446395|   -1.911940|
|           6|          61|    1.151337|    0.000437|   -5.461814|   -1.927359|
|           6|          62|    1.150594|    0.000438|   -5.477093|   -1.942638|
|           6|          63|    1.149924|    0.000440|   -5.492383|   -1.957928|
|           6|          64|    1.149327|    0.000441|   -5.507767|   -1.973313|
|           6|          65|    1.148797|    0.000442|   -5.523312|   -1.988857|
|           6|          66|    1.148334|    0.000443|   -5.539039|   -2.004584|
|           6|          67|    1.147932|    0.000444|   -5.554941|   -2.020486|
|           6|          68|    1.147588|    0.000445|   -5.571024|   -2.036569|
|           6|          69|    1.147299|    0.000446|   -5.587244|   -2.052789|
|           6|          70|    1.147058|    0.000447|   -5.603515|   -2.069060|
|           6|          71|    1.146864|    0.000448|   -5.619743|   -2.085288|
|           6|          72|    1.146711|    0.000449|   -5.635861|   -2.101406|
|           6|          73|    1.146595|    0.000450|   -5.651825|   -2.117370|
|           6|          74|    1.146513|    0.000451|   -5.667608|   -2.133153|
|           6|          75|    1.146462|    0.000452|   -5.683199|   -2.148744|
|           6|          76|    1.146438|    0.000452|   -5.698582|   -2.164127|
|           6|          77|    1.146439|    0.000453|   -5.713716|   -2.179261|
|           6|          78|    1.146462|    0.000454|   -5.728545|   -2.194090|
|           6|          79|    1.146505|    0.000454|   -5.742986|   -2.208531|
|           6|          80|    1.146567|    0.000455|   -5.756920|   -2.222465|
|           6|          81|    1.146645|    0.000456|   -5.770175|   -2.235720|
|           6|          82|    1.146739|    0.000456|   -5.782629|   -2.248174|
|           6|          83|    1.146847|    0.000457|   -5.794197|   -2.259742|
|           6|          84|    1.146968|    0.000457|   -5.804846|   -2.270391|
|           6|          85|    1.147101|    0.000458|   -5.814602|   -2.280147|
|           6|          86|    1.147246|    0.000458|   -5.823555|   -2.289100|
|           6|          87|    1.147400|    0.000459|   -5.831842|   -2.297387|
|           6|          88|    1.147563|    0.000459|   -5.839645|   -2.305190|
|           6|          89|    1.147734|    0.000459|   -5.847161|   -2.312706|
|           6|          90|    1.147912|    0.000460|   -5.854580|   -2.320125|
|           6|          91|    1.148095|    0.000460|   -5.862063|   -2.327609|
|           6|          92|    1.148283|    0.000460|   -5.869734|   -2.335279|
|           6|          93|    1.148475|    0.000460|   -5.877670|   -2.343216|
|           6|          94|    1.148669|    0.000461|   -5.885909|   -2.351454|
|           6|          95|    1.148865|    0.000461|   -5.894452|   -2.359997|
|           6|          96|    1.149061|    0.000461|   -5.903282|   -2.368827|
|           6|          97|    1.149257|    0.000461|   -5.912368|   -2.377913|
|           6|          98|    1.149453|    0.000461|   -5.921686|   -2.387231|
|           6|          99|    1.149648|    0.000461|   -5.931231|   -2.396776|
+-----------------------------------------------------------------------------+
|   Time_Iter|  Inner_Iter|          CD|          CL|    rms[Rho]| relrms[Rho]|
+-----------------------------------------------------------------------------+
|           7|           0|    1.148354|    0.000466|   -3.618553|    0.000000|
|           7|           1|    1.146613|    0.000473|   -3.678111|   -0.059559|
|           7|           2|    1.144327|    0.000481|   -3.734622|   -0.116069|
|           7|           3|    1.141472|    0.000493|   -3.788183|   -0.169631|
|           7|           4|    1.138079|    0.000506|   -3.839274|   -0.220722|
|           7|           5|    1.134204|    0.000522|   -3.888807|   -0.270254|
|           7|           6|    1.129907|    0.000540|   -3.937806|   -0.319253|
|           7|           7|    1.125239|    0.000559|   -3.987009|   -0.368457|
|           7|           8|    1.120249|    0.000580|   -4.036699|   -0.418146|
|           7|           9|    1.114981|    0.000602|   -4.086752|   -0.468199|
|           7|          10|    1.109490|    0.000624|   -4.136830|   -0.518278|
|           7|          11|    1.103835|    0.000647|   -4.186554|   -0.568001|
|           7|          12|    1.098084|    0.000669|   -4.235648|   -0.617096|
|           7|          13|    1.092313|    0.000692|   -4.284030|   -0.665478|
|           7|          14|    1.086597|    0.000713|   -4.331805|   -0.713253|
|           7|          15|    1.081014|    0.000733|   -4.379225|   -0.760673|
|           7|          16|    1.075643|    0.000752|   -4.426592|   -0.808039|
|           7|          17|    1.070561|    0.000769|   -4.474163|   -0.855610|
|           7|          18|    1.065845|    0.000785|   -4.522111|   -0.903558|
|           7|          19|    1.061565|    0.000800|   -4.570386|   -0.951833|
|           7|          20|    1.057780|    0.000813|   -4.618770|   -1.000218|
|           7|          21|    1.054533|    0.000824|   -4.666897|   -1.048345|
|           7|          22|    1.051843|    0.000835|   -4.714299|   -1.095746|
|           7|          23|    1.049709|    0.000844|   -4.760461|   -1.141908|
|           7|          24|    1.048101|    0.000853|   -4.804857|   -1.186305|
|           7|          25|    1.046971|    0.000861|   -4.847050|   -1.228498|
|           7|          26|    1.046254|    0.000868|   -4.886697|   -1.268145|
|           7|          27|    1.045872|    0.000875|   -4.923554|   -1.305001|
|           7|          28|    1.045750|    0.000881|   -4.957453|   -1.338900|
|           7|          29|    1.045812|    0.000887|   -4.988355|   -1.369803|
|           7|          30|    1.045994|    0.000892|   -5.016338|   -1.397786|
|           7|          31|    1.046242|    0.000898|   -5.041591|   -1.423039|
|           7|          32|    1.046518|    0.000903|   -5.064414|   -1.445862|
|           7|          33|    1.046793|    0.000908|   -5.085143|   -1.466590|
|           7|          34|    1.047055|    0.000912|   -5.104174|   -1.485621|
|           7|          35|    1.047296|    0.000916|   -5.121888|   -1.503335|
|           7|          36|    1.047518|    0.000920|   -5.138659|   -1.520106|
|           7|          37|    1.047726|    0.000924|   -5.154833|   -1.536280|
|           7|          38|    1.047926|    0.000927|   -5.170686|   -1.552134|
|           7|          39|    1.048126|    0.000931|   -5.186413|   -1.567861|
|           7|          40|    1.048335|    0.000934|   -5.202159|   -1.583606|
|           7|          41|    1.048558|    0.000937|   -5.217974|   -1.599422|
|           7|          42|    1.048799|    0.000939|   -5.233851|   -1.615298|
|           7|          43|    1.049064|    0.000942|   -5.249694|   -1.631141|
|           7|          44|    1.049352|    0.000944|   -5.265369|   -1.646816|
|           7|          45|    1.049666|    0.000947|   -5.280730|   -1.662177|
|           7|          46|    1.050004|    0.000949|   -5.295635|   -1.677082|
|           7|          47|    1.050366|    0.000951|   -5.309967|   -1.691414|
|           7|          48|    1.050748|    0.000953|   -5.323627|   -1.705075|
|           7|          49|    1.051149|    0.000955|   -5.336596|   -1.718044|
|           7|          50|    1.051566|    0.000957|   -5.348906|   -1.730353|
|           7|          51|    1.051996|    0.000959|   -5.360626|   -1.742074|
|           7|          52|    1.052436|    0.000960|   -5.371858|   -1.753306|
|           7|          53|    1.052886|    0.000962|   -5.382695|   -1.764143|
|           7|          54|    1.053342|    0.000963|   -5.393252|   -1.774699|
|           7|          55|    1.053804|    0.000965|   -5.403627|   -1.785074|
|           7|          56|    1.054272|    0.000966|   -5.413918|   -1.795365|
|           7|          57|    1.054745|    0.000967|   -5.424204|   -1.805652|
|           7|          58|    1.055224|    0.000968|   -5.434538|   -1.815985|
|           7|          59|    1.055710|    0.000969|   -5.444963|   -1.826410|
|           7|          60|    1.056205|    0.000970|   -5.455491|   -1.836939|
|           7|          61|    1.056709|    0.000971|   -5.466119|   -1.847566|
|           7|          62|    1.057223|    0.000971|   -5.476829|   -1.858276|
|           7|          63|    1.057749|    0.000972|   -5.487620|   -1.869068|
|           7|          64|    1.058289|    0.000973|   -5.498492|   -1.879939|
|           7|          65|    1.058842|    0.000973|   -5.509427|   -1.890875|
|           7|          66|    1.059410|    0.000974|   -5.520445|   -1.901892|
|           7|          67|    1.059992|    0.000974|   -5.531553|   -1.913001|
|           7|          68|    1.060589|    0.000975|   -5.542671|   -1.924118|
|           7|          69|    1.061201|    0.000975|   -5.553763|   -1.935210|
|           7|          70|    1.061827|    0.000975|   -5.564795|   -1.946242|
|           7|          71|    1.062467|    0.000975|   -5.575739|   -1.957186|
|           7|          72|    1.063119|    0.000976|   -5.586569|   -1.968016|
|           7|          73|    1.063781|    0.000976|   -5.597261|   -1.978708|
|           7|          74|    1.064454|    0.000976|   -5.607796|   -1.989244|
|           7|          75|    1.065135|    0.000976|   -5.618165|   -1.999612|
|           7|          76|    1.065822|    0.000976|   -5.628370|   -2.009818|
|           7|          77|    1.066515|    0.000976|   -5.638434|   -2.019881|
|           7|          78|    1.067211|    0.000976|   -5.648379|   -2.029826|
|           7|          79|    1.067910|    0.000976|   -5.658240|   -2.039688|
|           7|          80|    1.068609|    0.000976|   -5.668061|   -2.049508|
|           7|          81|    1.069308|    0.000976|   -5.677885|   -2.059332|
|           7|          82|    1.070004|    0.000976|   -5.687754|   -2.069202|
|           7|          83|    1.070698|    0.000976|   -5.697703|   -2.079150|
|           7|          84|    1.071388|    0.000976|   -5.707738|   -2.089186|
|           7|          85|    1.072072|    0.000976|   -5.717857|   -2.099305|
|           7|          86|    1.072751|    0.000976|   -5.728033|   -2.109480|
|           7|          87|    1.073423|    0.000976|   -5.738219|   -2.119667|
|           7|          88|    1.074087|    0.000976|   -5.748352|   -2.129799|
|           7|          89|    1.074743|    0.000976|   -5.758353|   -2.139800|
|           7|          90|    1.075390|    0.000976|   -5.768136|   -2.149584|
|           7|          91|    1.076027|    0.000976|   -5.777623|   -2.159070|
|           7|          92|    1.076653|    0.000976|   -5.786743|   -2.168191|
|           7|          93|    1.077268|    0.000976|   -5.795453|   -2.176901|
|           7|          94|    1.077871|    0.000976|   -5.803733|   -2.185180|
|           7|          95|    1.078460|    0.000976|   -5.811591|   -2.193039|
|           7|          96|    1.079036|    0.000976|   -5.819068|   -2.200516|
|           7|          97|    1.079597|    0.000976|   -5.826222|   -2.207670|
|           7|          98|    1.080142|    0.000976|   -5.833125|   -2.214572|
|           7|          99|    1.080670|    0.000976|   -5.839851|   -2.221299|
+-----------------------------------------------------------------------------+
|   Time_Iter|  Inner_Iter|          CD|          CL|    rms[Rho]| relrms[Rho]|
+-----------------------------------------------------------------------------+
|           8|           0|    1.081120|    0.000980|   -3.731689|    0.000000|
|           8|           1|    1.081556|    0.000985|   -3.790956|   -0.059267|
|           8|           2|    1.081953|    0.000993|   -3.847322|   -0.115633|
|           8|           3|    1.082269|    0.001002|   -3.901210|   -0.169521|
|           8|           4|    1.082453|    0.001014|   -3.953317|   -0.221628|
[...]
|         197|          78|    1.836361|   -0.535265|   -4.778335|   -1.348543|
|         197|          79|    1.836364|   -0.536145|   -4.786140|   -1.356348|
|         197|          80|    1.836369|   -0.536913|   -4.794144|   -1.364352|
|         197|          81|    1.836387|   -0.537578|   -4.802358|   -1.372566|
|         197|          82|    1.836423|   -0.538139|   -4.810788|   -1.380996|
|         197|          83|    1.836486|   -0.538609|   -4.819468|   -1.389676|
|         197|          84|    1.836585|   -0.539000|   -4.828400|   -1.398608|
|         197|          85|    1.836722|   -0.539323|   -4.837576|   -1.407784|
|         197|          86|    1.836900|   -0.539590|   -4.846975|   -1.417184|
|         197|          87|    1.837120|   -0.539813|   -4.856561|   -1.426769|
|         197|          88|    1.837382|   -0.540005|   -4.866291|   -1.436500|
|         197|          89|    1.837686|   -0.540180|   -4.876123|   -1.446331|
|         197|          90|    1.838026|   -0.540347|   -4.886005|   -1.456213|
|         197|          91|    1.838399|   -0.540515|   -4.895887|   -1.466096|
|         197|          92|    1.838801|   -0.540692|   -4.905728|   -1.475936|
|         197|          93|    1.839226|   -0.540886|   -4.915503|   -1.485712|
|         197|          94|    1.839670|   -0.541104|   -4.925219|   -1.495428|
|         197|          95|    1.840128|   -0.541349|   -4.934908|   -1.505117|
|         197|          96|    1.840597|   -0.541628|   -4.944617|   -1.514826|
|         197|          97|    1.841072|   -0.541945|   -4.954385|   -1.524594|
|         197|          98|    1.841549|   -0.542302|   -4.964252|   -1.534461|
|         197|          99|    1.842025|   -0.542701|   -4.974255|   -1.544463|
+-----------------------------------------------------------------------------+
|   Time_Iter|  Inner_Iter|          CD|          CL|    rms[Rho]| relrms[Rho]|
+-----------------------------------------------------------------------------+
|         198|           0|    1.841630|   -0.552045|   -3.424607|    0.000000|
|         198|           1|    1.842482|   -0.565948|   -3.452065|   -0.027458|
|         198|           2|    1.844890|   -0.585465|   -3.469439|   -0.044832|
|         198|           3|    1.848839|   -0.610817|   -3.488853|   -0.064246|
|         198|           4|    1.854075|   -0.641500|   -3.514509|   -0.089903|
|         198|           5|    1.860271|   -0.676517|   -3.546174|   -0.121567|
|         198|           6|    1.867161|   -0.714669|   -3.581933|   -0.157326|
|         198|           7|    1.874615|   -0.754797|   -3.619639|   -0.195033|
|         198|           8|    1.882619|   -0.795933|   -3.657628|   -0.233022|
|         198|           9|    1.891215|   -0.837349|   -3.695006|   -0.270400|
|         198|          10|    1.900447|   -0.878526|   -3.731619|   -0.307012|
|         198|          11|    1.910322|   -0.919086|   -3.767669|   -0.343062|
|         198|          12|    1.920805|   -0.958728|   -3.803316|   -0.378709|
|         198|          13|    1.931824|   -0.997184|   -3.838494|   -0.413887|
|         198|          14|    1.943281|   -1.034200|   -3.872899|   -0.448293|
|         198|          15|    1.955058|   -1.069545|   -3.906065|   -0.481459|
|         198|          16|    1.967025|   -1.103027|   -3.937438|   -0.512831|
|         198|          17|    1.979038|   -1.134507|   -3.966531|   -0.541925|
|         198|          18|    1.990945|   -1.163912|   -3.993079|   -0.568473|
|         198|          19|    2.002586|   -1.191235|   -4.017111|   -0.592505|
|         198|          20|    2.013804|   -1.216520|   -4.038919|   -0.614312|
|         198|          21|    2.024445|   -1.239854|   -4.058958|   -0.634351|
|         198|          22|    2.034373|   -1.261348|   -4.077784|   -0.653177|
|         198|          23|    2.043475|   -1.281127|   -4.096036|   -0.671430|
|         198|          24|    2.051663|   -1.299316|   -4.114383|   -0.689776|
|         198|          25|    2.058886|   -1.316034|   -4.133395|   -0.708788|
|         198|          26|    2.065122|   -1.331387|   -4.153468|   -0.728861|
|         198|          27|    2.070387|   -1.345468|   -4.174783|   -0.750176|
|         198|          28|    2.074726|   -1.358357|   -4.197299|   -0.772692|
|         198|          29|    2.078214|   -1.370118|   -4.220782|   -0.796175|
|         198|          30|    2.080946|   -1.380803|   -4.244837|   -0.820230|
|         198|          31|    2.083034|   -1.390456|   -4.268974|   -0.844367|
|         198|          32|    2.084597|   -1.399111|   -4.292683|   -0.868076|
|         198|          33|    2.085753|   -1.406801|   -4.315519|   -0.890913|
|         198|          34|    2.086616|   -1.413553|   -4.337176|   -0.912570|
|         198|          35|    2.087288|   -1.419396|   -4.357520|   -0.932913|
|         198|          36|    2.087854|   -1.424358|   -4.376584|   -0.951977|
|         198|          37|    2.088385|   -1.428467|   -4.394517|   -0.969910|
|         198|          38|    2.088935|   -1.431755|   -4.411515|   -0.986909|
|         198|          39|    2.089544|   -1.434254|   -4.427762|   -1.003155|
|         198|          40|    2.090236|   -1.436000|   -4.443387|   -1.018780|
|         198|          41|    2.091027|   -1.437027|   -4.458452|   -1.033845|
|         198|          42|    2.091920|   -1.437369|   -4.472959|   -1.048352|
|         198|          43|    2.092913|   -1.437063|   -4.486878|   -1.062271|
|         198|          44|    2.093996|   -1.436144|   -4.500179|   -1.075572|
|         198|          45|    2.095156|   -1.434651|   -4.512862|   -1.088255|
|         198|          46|    2.096376|   -1.432619|   -4.524976|   -1.100370|
|         198|          47|    2.097634|   -1.430087|   -4.536625|   -1.112018|
|         198|          48|    2.098909|   -1.427096|   -4.547955|   -1.123348|
|         198|          49|    2.100177|   -1.423684|   -4.559140|   -1.134534|
|         198|          50|    2.101414|   -1.419890|   -4.570352|   -1.145746|
|         198|          51|    2.102595|   -1.415755|   -4.581740|   -1.157133|
|         198|          52|    2.103698|   -1.411317|   -4.593413|   -1.168806|
|         198|          53|    2.104698|   -1.406619|   -4.605429|   -1.180823|
|         198|          54|    2.105577|   -1.401699|   -4.617799|   -1.193193|
|         198|          55|    2.106315|   -1.396597|   -4.630491|   -1.205884|
|         198|          56|    2.106895|   -1.391349|   -4.643436|   -1.218829|
|         198|          57|    2.107303|   -1.385991|   -4.656545|   -1.231939|
|         198|          58|    2.107528|   -1.380559|   -4.669723|   -1.245117|
|         198|          59|    2.107558|   -1.375084|   -4.682876|   -1.258269|
|         198|          60|    2.107386|   -1.369596|   -4.695911|   -1.271305|
|         198|          61|    2.107005|   -1.364120|   -4.708747|   -1.284141|
|         198|          62|    2.106412|   -1.358680|   -4.721313|   -1.296706|
|         198|          63|    2.105603|   -1.353298|   -4.733548|   -1.308941|
|         198|          64|    2.104579|   -1.347990|   -4.745411|   -1.320805|
|         198|          65|    2.103341|   -1.342771|   -4.756881|   -1.332274|
|         198|          66|    2.101894|   -1.337654|   -4.767955|   -1.343348|
|         198|          67|    2.100243|   -1.332645|   -4.778657|   -1.354050|
|         198|          68|    2.098396|   -1.327752|   -4.789033|   -1.364427|
|         198|          69|    2.096366|   -1.322979|   -4.799149|   -1.374542|
|         198|          70|    2.094163|   -1.318326|   -4.809083|   -1.384477|
|         198|          71|    2.091803|   -1.313793|   -4.818922|   -1.394315|
|         198|          72|    2.089303|   -1.309379|   -4.828742|   -1.404135|
|         198|          73|    2.086680|   -1.305081|   -4.838616|   -1.414010|
|         198|          74|    2.083953|   -1.300897|   -4.848597|   -1.423991|
|         198|          75|    2.081142|   -1.296822|   -4.858719|   -1.434112|
|         198|          76|    2.078266|   -1.292853|   -4.868991|   -1.444384|
|         198|          77|    2.075345|   -1.288986|   -4.879401|   -1.454795|
|         198|          78|    2.072400|   -1.285219|   -4.889916|   -1.465309|
|         198|          79|    2.069448|   -1.281549|   -4.900482|   -1.475876|
|         198|          80|    2.066509|   -1.277974|   -4.911032|   -1.486426|
|         198|          81|    2.063601|   -1.274492|   -4.921490|   -1.496883|
|         198|          82|    2.060738|   -1.271104|   -4.931774|   -1.507168|
|         198|          83|    2.057937|   -1.267808|   -4.941815|   -1.517209|
|         198|          84|    2.055209|   -1.264606|   -4.951552|   -1.526945|
|         198|          85|    2.052568|   -1.261496|   -4.960938|   -1.536332|
|         198|          86|    2.050022|   -1.258479|   -4.969947|   -1.545341|
|         198|          87|    2.047581|   -1.255553|   -4.978577|   -1.553971|
|         198|          88|    2.045250|   -1.252718|   -4.986849|   -1.562243|
|         198|          89|    2.043033|   -1.249972|   -4.994800|   -1.570194|
|         198|          90|    2.040934|   -1.247312|   -5.002484|   -1.577877|
|         198|          91|    2.038951|   -1.244737|   -5.009964|   -1.585357|
|         198|          92|    2.037085|   -1.242243|   -5.017303|   -1.592696|
|         198|          93|    2.035330|   -1.239828|   -5.024555|   -1.599948|
|         198|          94|    2.033683|   -1.237488|   -5.031750|   -1.607143|
|         198|          95|    2.032136|   -1.235220|   -5.038886|   -1.614280|
|         198|          96|    2.030681|   -1.233019|   -5.045928|   -1.621321|
|         198|          97|    2.029309|   -1.230883|   -5.052800|   -1.628193|
|         198|          98|    2.028010|   -1.228809|   -5.059395|   -1.634789|
|         198|          99|    2.026772|   -1.226795|   -5.065585|   -1.640979|
+-----------------------------------------------------------------------+
|        File Writing Summary       |              Filename             |
+-----------------------------------------------------------------------+
|SU2 binary restart                 |output_restart/restart_flow_00198.dat|
+-----------------------------------------------------------------------+
+-----------------------------------------------------------------------------+
|   Time_Iter|  Inner_Iter|          CD|          CL|    rms[Rho]| relrms[Rho]|
+-----------------------------------------------------------------------------+
|         199|           0|    2.028880|   -1.227841|   -3.442626|    0.000000|
|         199|           1|    2.031628|   -1.230321|   -3.468781|   -0.026155|
|         199|           2|    2.034898|   -1.234519|   -3.484559|   -0.041933|
|         199|           3|    2.038591|   -1.240559|   -3.502119|   -0.059492|
|         199|           4|    2.042669|   -1.248437|   -3.525884|   -0.083258|
|         199|           5|    2.047125|   -1.258068|   -3.555900|   -0.113274|
|         199|           6|    2.051925|   -1.269329|   -3.590452|   -0.147826|
|         199|           7|    2.056957|   -1.282084|   -3.627399|   -0.184772|
|         199|           8|    2.062008|   -1.296188|   -3.664771|   -0.222145|
|         199|           9|    2.066784|   -1.311476|   -3.701231|   -0.258605|
|         199|          10|    2.070968|   -1.327736|   -3.736243|   -0.293617|
|         199|          11|    2.074291|   -1.344687|   -3.769845|   -0.327219|
|         199|          12|    2.076600|   -1.361967|   -3.802315|   -0.359689|
|         199|          13|    2.077894|   -1.379141|   -3.833920|   -0.391294|
|         199|          14|    2.078321|   -1.395731|   -3.864757|   -0.422131|
|         199|          15|    2.078146|   -1.411251|   -3.894639|   -0.452013|
|         199|          16|    2.077703|   -1.425257|   -3.923139|   -0.480513|
|         199|          17|    2.077330|   -1.437381|   -3.949764|   -0.507138|
|         199|          18|    2.077320|   -1.447366|   -3.974106|   -0.531480|
|         199|          19|    2.077886|   -1.455072|   -3.995947|   -0.553321|
|         199|          20|    2.079145|   -1.460475|   -4.015298|   -0.572672|
|         199|          21|    2.081116|   -1.463651|   -4.032397|   -0.589771|
|         199|          22|    2.083741|   -1.464753|   -4.047695|   -0.605068|
|         199|          23|    2.086900|   -1.463990|   -4.061780|   -0.619154|
|         199|          24|    2.090443|   -1.461595|   -4.075294|   -0.632668|
|         199|          25|    2.094203|   -1.457813|   -4.088850|   -0.646224|
|         199|          26|    2.098023|   -1.452879|   -4.102983|   -0.660356|
|         199|          27|    2.101768|   -1.447008|   -4.118116|   -0.675490|
|         199|          28|    2.105330|   -1.440384|   -4.134538|   -0.691912|
|         199|          29|    2.108629|   -1.433166|   -4.152402|   -0.709776|
|         199|          30|    2.111616|   -1.425475|   -4.171730|   -0.729104|
|         199|          31|    2.114267|   -1.417406|   -4.192437|   -0.749810|
|         199|          32|    2.116577|   -1.409028|   -4.214340|   -0.771714|
|         199|          33|    2.118551|   -1.400387|   -4.237178|   -0.794552|
|         199|          34|    2.120208|   -1.391517|   -4.260635|   -0.818009|
|         199|          35|    2.121565|   -1.382438|   -4.284383|   -0.841756|
|         199|          36|    2.122640|   -1.373170|   -4.308114|   -0.865488|
|         199|          37|    2.123444|   -1.363729|   -4.331567|   -0.888941|
|         199|          38|    2.123983|   -1.354137|   -4.354543|   -0.911917|
|         199|          39|    2.124261|   -1.344418|   -4.376913|   -0.934286|
|         199|          40|    2.124275|   -1.334602|   -4.398611|   -0.955984|
|         199|          41|    2.124020|   -1.324724|   -4.419619|   -0.976993|
|         199|          42|    2.123493|   -1.314824|   -4.439952|   -0.997325|
|         199|          43|    2.122694|   -1.304941|   -4.459633|   -1.017006|
|         199|          44|    2.121630|   -1.295116|   -4.478692|   -1.036066|
|         199|          45|    2.120316|   -1.285390|   -4.497152|   -1.054526|
|         199|          46|    2.118776|   -1.275799|   -4.515019|   -1.072393|
|         199|          47|    2.117043|   -1.266378|   -4.532299|   -1.089672|
|         199|          48|    2.115161|   -1.257154|   -4.548989|   -1.106362|
|         199|          49|    2.113182|   -1.248152|   -4.565082|   -1.122456|
|         199|          50|    2.111164|   -1.239393|   -4.580568|   -1.137942|
|         199|          51|    2.109168|   -1.230892|   -4.595431|   -1.152805|
|         199|          52|    2.107256|   -1.222662|   -4.609648|   -1.167022|
|         199|          53|    2.105486|   -1.214710|   -4.623203|   -1.180577|
|         199|          54|    2.103917|   -1.207043|   -4.636057|   -1.193431|
|         199|          55|    2.102597|   -1.199661|   -4.648168|   -1.205542|
|         199|          56|    2.101570|   -1.192564|   -4.659491|   -1.216864|
|         199|          57|    2.100872|   -1.185745|   -4.669990|   -1.227363|
|         199|          58|    2.100527|   -1.179198|   -4.679647|   -1.237021|
|         199|          59|    2.100551|   -1.172910|   -4.688467|   -1.245840|
|         199|          60|    2.100944|   -1.166871|   -4.696441|   -1.253814|
|         199|          61|    2.101693|   -1.161064|   -4.703565|   -1.260939|
|         199|          62|    2.102773|   -1.155474|   -4.709851|   -1.267225|
|         199|          63|    2.104140|   -1.150085|   -4.715322|   -1.272695|
|         199|          64|    2.105738|   -1.144878|   -4.720004|   -1.277378|
|         199|          65|    2.107499|   -1.139837|   -4.723969|   -1.281343|
|         199|          66|    2.109345|   -1.134942|   -4.727305|   -1.284678|
|         199|          67|    2.111188|   -1.130177|   -4.730128|   -1.287502|
|         199|          68|    2.112939|   -1.125524|   -4.732560|   -1.289934|
|         199|          69|    2.114506|   -1.120965|   -4.734709|   -1.292083|
|         199|          70|    2.115799|   -1.116485|   -4.736649|   -1.294023|
|         199|          71|    2.116736|   -1.112069|   -4.738417|   -1.295791|
|         199|          72|    2.117246|   -1.107706|   -4.740001|   -1.297374|
|         199|          73|    2.117271|   -1.103386|   -4.741387|   -1.298761|
|         199|          74|    2.116775|   -1.099104|   -4.742558|   -1.299932|
|         199|          75|    2.115742|   -1.094859|   -4.743511|   -1.300885|
|         199|          76|    2.114181|   -1.090652|   -4.744305|   -1.301679|
|         199|          77|    2.112124|   -1.086491|   -4.745013|   -1.302387|
|         199|          78|    2.109625|   -1.082386|   -4.745777|   -1.303151|
|         199|          79|    2.106756|   -1.078350|   -4.746756|   -1.304130|
|         199|          80|    2.103604|   -1.074396|   -4.748102|   -1.305476|
|         199|          81|    2.100263|   -1.070539|   -4.749945|   -1.307318|
|         199|          82|    2.096828|   -1.066792|   -4.752372|   -1.309745|
|         199|          83|    2.093393|   -1.063168|   -4.755447|   -1.312821|
|         199|          84|    2.090038|   -1.059674|   -4.759137|   -1.316510|
|         199|          85|    2.086833|   -1.056317|   -4.763405|   -1.320779|
|         199|          86|    2.083833|   -1.053099|   -4.768169|   -1.325543|
|         199|          87|    2.081073|   -1.050020|   -4.773317|   -1.330691|
|         199|          88|    2.078574|   -1.047076|   -4.778745|   -1.336119|
|         199|          89|    2.076342|   -1.044263|   -4.784354|   -1.341728|
|         199|          90|    2.074370|   -1.041573|   -4.790054|   -1.347428|
|         199|          91|    2.072641|   -1.039000|   -4.795785|   -1.353158|
|         199|          92|    2.071129|   -1.036536|   -4.801521|   -1.358894|
|         199|          93|    2.069807|   -1.034174|   -4.807235|   -1.364608|
|         199|          94|    2.068643|   -1.031907|   -4.812931|   -1.370305|
|         199|          95|    2.067608|   -1.029729|   -4.818647|   -1.376021|
|         199|          96|    2.066674|   -1.027633|   -4.824412|   -1.381786|
|         199|          97|    2.065815|   -1.025617|   -4.830308|   -1.387681|
|         199|          98|    2.065010|   -1.023677|   -4.836413|   -1.393787|
|         199|          99|    2.064243|   -1.021810|   -4.842810|   -1.400184|

----------------------------- Solver Exit -------------------------------
Maximum number of time iterations reached (TIME_ITER = 200).
-------------------------------------------------------------------------
+-----------------------------------------------------------------------+
|        File Writing Summary       |              Filename             |
+-----------------------------------------------------------------------+
|SU2 binary restart                 |output_restart/restart_flow_00199.dat|
|Paraview                           |output_flow/flow_00199.vtu         |
|Paraview surface                   |output_surface_flow/surface_flow_00199.vtu|
+-----------------------------------------------------------------------+

------------------------- Solver Postprocessing -------------------------
Deleted CNumerics container.
Deleted CIntegration container.
Deleted CSolver container.
Deleted CIteration container.
Deleted CInterface container.
Deleted CGeometry container.
Deleted CFreeFormDefBox class.
Deleted CSurfaceMovement class.
Deleted CVolumetricMovement class.
Deleted CConfig container.
Deleted nInst container.
Deleted COutput class.
-------------------------------------------------------------------------

------------------------- Exit Success (SU2_CFD) ------------------------

