
-------------------------------------------------------------------------
|    ___ _   _ ___                                                      |
|   / __| | | |_  )   Release 7.5.0 "Blackbird"                         |
|   \__ \ |_| |/ /                                                      |
|   |___/\___//___|   Suite (Computational Fluid Dynamics Code)         |
|                                                                       |
-------------------------------------------------------------------------
| SU2 Project Website: https://su2code.github.io                        |
|                                                                       |
| The SU2 Project is maintained by the SU2 Foundation                   |
| (http://su2foundation.org)                                            |
-------------------------------------------------------------------------
| Copyright 2012-2022, SU2 Contributors                                 |
|                                                                       |
| SU2 is free software; you can redistribute it and/or                  |
| modify it under the terms of the GNU Lesser General Public            |
| License as published by the Free Software Foundation; either          |
| version 2.1 of the License, or (at your option) any later version.    |
|                                                                       |
| SU2 is distributed in the hope that it will be useful,                |
| but WITHOUT ANY WARRANTY; without even the implied warranty of        |
| MERCHANTABILITY or FITNESS FOR A PARTICULAR PURPOSE. See the GNU      |
| Lesser General Public License for more details.                       |
|                                                                       |
| You should have received a copy of the GNU Lesser General Public      |
| License along with SU2. If not, see <http://www.gnu.org/licenses/>.   |
-------------------------------------------------------------------------

Parsing config file for zone 0

----------------- Physical Case Definition ( Zone 0 ) -------------------
Compressible Laminar Navier-Stokes' equations.
Mach number: 1.5.
Angle of attack (AoA): 0 deg, and angle of sideslip (AoS): 0 deg.
Reynolds number: 594925. Reference length 0.2.
No restart solution, use the values at infinity (freestream).
Dimensional simulation.
The reference area is 0.15708 m^2.
The semi-span will be computed using the max y(3D) value.
The reference length is 0.2 m.
Reference origin for moment evaluation is (0.1, 0, 0).
Surface(s) where the force coefficients are evaluated: interface.

Surface(s) plotted in the output file: interface.
Input mesh file name: sphere.su2

--------------- Space Numerical Integration ( Zone 0 ) ------------------
Jameson-Schmidt-Turkel scheme (2nd order in space) for the flow inviscid terms.
JST viscous coefficients (2nd & 4th): 0.25, 0.015625.
The method includes a grid stretching correction (p = 0.3).
Average of gradients with correction (viscous flow terms).
Gradient for upwind reconstruction: Green-Gauss.
Gradient for viscous and source terms: Green-Gauss.

--------------- Time Numerical Integration  ( Zone 0 ) ------------------
Unsteady simulation, dual time stepping strategy (second order in time).
Unsteady time step provided by the user (s): 0.0001.
Euler implicit method for the flow equations.
FGMRES is used for solving the linear system.
Using a LU-SGS preconditioning.
Convergence criteria of the linear solver: 1e-06.
Max number of linear iterations: 25.
CFL adaptation. Factor down: 0.5, factor up: 1.5,
                lower limit: 1, upper limit: 5,
                acceptable linear residual: 0.001.
Courant-Friedrichs-Lewy number:        5

------------------ Convergence Criteria  ( Zone 0 ) ---------------------
Maximum number of solver subiterations: 100.
Maximum number of physical time-steps: 200.
Begin convergence monitoring at iteration 5.
Residual minimum value: 1e-4.
Cauchy series min. value: 1e-10.
Number of Cauchy elements: 100.
Begin windowed time average at iteration 9999.
Begin time convergence monitoring at iteration 9999.
Time cauchy series min. value: 0.001.
Number of Cauchy elements: 10.

-------------------- Output Information ( Zone 0 ) ----------------------
File writing frequency: 
+------------------------------------+
|                     File| Frequency|
+------------------------------------+
|                  RESTART|       200|
|                 PARAVIEW|       200|
|         SURFACE_PARAVIEW|       200|
+------------------------------------+
Writing the convergence history file every 0 inner iterations.
Writing the convergence history file every 1 time iterations.
Writing the screen convergence history every 1 inner iterations.
Writing the screen convergence history every 1 time iterations.
The tabular file format is Tecplot (.dat).
Convergence history file name: history.
Forces breakdown file name: forces_breakdown.dat.
Surface file name: output_surface_flow/surface_flow.
Volume file name: output_flow/flow.
Restart file name: output_restart/restart_flow.dat.

------------- Config File Boundary Information ( Zone 0 ) ---------------
+-----------------------------------------------------------------------+
|                        Marker Type|                        Marker Name|
+-----------------------------------------------------------------------+
|                          Far-field|                              inlet|
+-----------------------------------------------------------------------+
|           Deformable mesh boundary|                          interface|
+-----------------------------------------------------------------------+
|                    Outlet boundary|                             outlet|
+-----------------------------------------------------------------------+
|                    Isothermal wall|                          interface|
+-----------------------------------------------------------------------+

-------------------- Output Preprocessing ( Zone 0 ) --------------------

WARNING: SURFACE_PRESSURE_DROP can only be computed for at least 2 surfaces (outlet, inlet, ...)

Screen output fields: TIME_ITER, INNER_ITER, DRAG, LIFT, RMS_DENSITY, REL_RMS_DENSITY
History output group(s): ITER, REL_RMS_RES, RMS_RES, AERO_COEFF
Convergence field(s): REL_RMS_DENSITY
Time Convergence field(s): TAVG_DRAG, TAVG_LIFT
Volume output fields: COORDINATES, SOLUTION, PRIMITIVE, GRID_VELOCITY

------------------- Geometry Preprocessing ( Zone 0 ) -------------------
Two dimensional problem.
66455 grid points before partitioning.
66000 volume elements before partitioning.
3 surface markers.
440 boundary elements in index 0 (Marker = inlet).
170 boundary elements in index 1 (Marker = interface).
300 boundary elements in index 2 (Marker = outlet).
Executing the partitioning functions.
Building the graph adjacency structure.
Calling ParMETIS... graph partitioning complete (1369 edge cuts).
Distributing ParMETIS coloring.
Rebalancing vertices.
Rebalancing volume element connectivity.
Rebalancing markers and surface elements.
69209 vertices including ghost points. 
67369 interior elements including halo cells. 
67369 quadrilaterals.
Establishing MPI communication patterns.
Setting point connectivity.
Renumbering points (Reverse Cuthill McKee Ordering).
Recomputing point connectivity.
Setting element connectivity.
Checking the numerical grid orientation.
All volume elements are correctly orientend.
All surface elements are correctly orientend.
Identifying edges and vertices.
Setting the control volume structure.
Area of the computational grid: 12.3141.
Searching for the closest normal neighbors to the surfaces.
Storing a mapping from global to local point index.
Compute the surface curvature.
Max K: 35.624. Mean K: 2.19812. Standard deviation K: 4.54939.
Checking for periodicity.
Computing mesh quality statistics for the dual control volumes.
+--------------------------------------------------------------+
|           Mesh Quality Metric|        Minimum|        Maximum|
+--------------------------------------------------------------+
|    Orthogonality Angle (deg.)|        27.9534|        89.9995|
|     CV Face Area Aspect Ratio|        1.00217|        196.771|
|           CV Sub-Volume Ratio|        1.00008|         9.2328|
+--------------------------------------------------------------+
Finding max control volume width.
Communicating number of neighbors.
Wetted area = 0.627908 m.
Area projection in the x-plane = 0.19998 m, y-plane = 0.199987 m.
Max. coordinate in the x-direction = 0.2 m, y-direction = 0.1 m.
Min. coordinate in the x-direction = 0 m, y-direction = -0.1 m.
Computing wall distances.

-------------------- Solver Preprocessing ( Zone 0 ) --------------------
Viscous flow: Computing pressure using the ideal gas law
based on the free-stream temperature and a density computed
from the Reynolds number.
Force coefficients computed using MACH_MOTION.

-- Models:
+------------------------------------------------------------------------------+
|          Viscosity Model|        Conductivity Model|              Fluid Model|
+------------------------------------------------------------------------------+
|               SUTHERLAND|          CONSTANT_PRANDTL|             STANDARD_AIR|
+------------------------------------------------------------------------------+
-- Fluid properties:
+------------------------------------------------------------------------------+
|                  Name|    Dim. value|    Ref. value|      Unit|Non-dim. value|
+------------------------------------------------------------------------------+
|        Ref. Viscosity|     1.716e-05|             1|   N.s/m^2|     1.716e-05|
|      Sutherland Temp.|        273.15|             1|         K|        273.15|
|     Sutherland Const.|         110.4|             1|         K|         110.4|
+------------------------------------------------------------------------------+
|        Prandtl (Lam.)|             -|             -|         -|          0.72|
|       Prandtl (Turb.)|             -|             -|         -|           0.9|
+------------------------------------------------------------------------------+
|          Gas Constant|       287.058|             1|  N.m/kg.K|       287.058|
|      Spec. Heat Ratio|             -|             -|         -|           1.4|
+------------------------------------------------------------------------------+
-- Initial and free-stream conditions:
+------------------------------------------------------------------------------+
|                  Name|    Dim. value|    Ref. value|      Unit|Non-dim. value|
+------------------------------------------------------------------------------+
|       Static Pressure|       8624.89|             1|        Pa|       8624.89|
|               Density|      0.104271|             1|    kg/m^3|      0.104271|
|           Temperature|        288.15|             1|         K|        288.15|
|          Total Energy|        337067|             1|   m^2/s^2|        337067|
|            Velocity-X|       510.446|             1|       m/s|       510.446|
|            Velocity-Y|             0|             1|       m/s|             0|
|    Velocity Magnitude|       510.446|             1|       m/s|       510.446|
+------------------------------------------------------------------------------+
|             Viscosity|    1.7893e-05|             1|   N.s/m^2|    1.7893e-05|
|          Conductivity|             -|             1|   W/m^2.K|             -|
+------------------------------------------------------------------------------+
|           Mach Number|             -|             -|         -|           1.5|
|       Reynolds Number|             -|             -|         -|        594925|
+------------------------------------------------------------------------------+
-- Unsteady conditions
+------------------------------------------------------------------------------+
|                  Name|    Dim. value|    Ref. value|      Unit|Non-dim. value|
+------------------------------------------------------------------------------+
|            Total Time|             1|             1|         s|             1|
|             Time Step|        0.0001|             1|         s|        0.0001|
+------------------------------------------------------------------------------+
Initialize Jacobian structure (Navier-Stokes). MG level: 0.
Initialize Jacobian structure (Mesh Deformation).

------------------- Numerics Preprocessing ( Zone 0 ) -------------------

----------------- Integration Preprocessing ( Zone 0 ) ------------------

------------------- Iteration Preprocessing ( Zone 0 ) ------------------
Euler/Navier-Stokes/RANS fluid iteration.

------------------------------ Begin Solver -----------------------------

Simulation Run using the Single-zone Driver
The simulation will run for 200 time steps.
CSysSolve::FGMRES(): system solved by initial guess.
WARNING: SU2 was not compiled for an AVX-capable architecture. Performance could be better,
         see https://su2code.github.io/docs_v7/Build-SU2-Linux-MacOS/#compiler-optimizations
+-----------------------------------------------------------------------------+
|   Time_Iter|  Inner_Iter|          CD|          CL|    rms[Rho]| relrms[Rho]|
+-----------------------------------------------------------------------------+
|           0|           0|    0.561660|    0.000000|   -2.110265|    0.000000|
|           0|           1|    1.069682|   -0.000000|   -2.267940|   -0.157675|
|           0|           2|    1.573938|    0.000000|   -2.340908|   -0.230643|
|           0|           3|    2.082943|    0.000000|   -2.406943|   -0.296678|
|           0|           4|    2.592162|    0.000000|   -2.473025|   -0.362760|
|           0|           5|    3.081070|    0.000000|   -2.537374|   -0.427109|
|           0|           6|    3.477611|    0.000000|   -2.579425|   -0.469160|
|           0|           7|    3.601512|   -0.000000|   -2.569942|   -0.459677|
|           0|           8|    3.594830|   -0.000000|   -2.532310|   -0.422045|
|           0|           9|    3.594765|   -0.000000|   -2.519183|   -0.408918|
|           0|          10|    3.567796|   -0.000000|   -2.526671|   -0.416406|
|           0|          11|    3.503650|   -0.000000|   -2.532678|   -0.422413|
|           0|          12|    3.428025|   -0.000000|   -2.531599|   -0.421334|
|           0|          13|    3.355338|   -0.000000|   -2.531904|   -0.421639|
|           0|          14|    3.299119|   -0.000000|   -2.534841|   -0.424576|
|           0|          15|    3.269514|   -0.000000|   -2.537450|   -0.427185|
|           0|          16|    3.267802|   -0.000000|   -2.538186|   -0.427921|
|           0|          17|    3.283132|   -0.000000|   -2.541061|   -0.430796|
|           0|          18|    3.301462|   -0.000000|   -2.541901|   -0.431636|
|           0|          19|    3.313117|   -0.000000|   -2.546756|   -0.436491|
|           0|          20|    3.315173|   -0.000000|   -2.548192|   -0.437927|
|           0|          21|    3.310890|   -0.000000|   -2.552443|   -0.442178|
|           0|          22|    3.305513|   -0.000000|   -2.552046|   -0.441781|
|           0|          23|    3.302558|   -0.000000|   -2.556341|   -0.446076|
|           0|          24|    3.302568|   -0.000000|   -2.557281|   -0.447016|
|           0|          25|    3.304100|   -0.000000|   -2.559835|   -0.449570|
|           0|          26|    3.305319|   -0.000000|   -2.559671|   -0.449406|
|           0|          27|    3.305220|   -0.000000|   -2.563522|   -0.453257|
|           0|          28|    3.303876|   -0.000000|   -2.564341|   -0.454076|
|           0|          29|    3.301985|   -0.000000|   -2.565669|   -0.455404|
|           0|          30|    3.300220|   -0.000000|   -2.564736|   -0.454471|
|           0|          31|    3.298854|    0.000000|   -2.568899|   -0.458633|
|           0|          32|    3.297761|    0.000000|   -2.569193|   -0.458928|
|           0|          33|    3.296643|    0.000000|   -2.567621|   -0.457356|
|           0|          34|    3.295263|    0.000000|   -2.572049|   -0.461784|
|           0|          35|    3.293566|    0.000000|   -2.572309|   -0.462044|
|           0|          36|    3.291637|   -0.000000|   -2.572504|   -0.462239|
|           0|          37|    3.289606|   -0.000000|   -2.573921|   -0.463656|
|           0|          38|    3.287556|   -0.000000|   -2.573505|   -0.463240|
|           0|          39|    3.285494|   -0.000000|   -2.575351|   -0.465086|
|           0|          40|    3.283380|   -0.000000|   -2.576951|   -0.466686|
|           0|          41|    3.281164|   -0.000000|   -2.575529|   -0.465264|
|           0|          42|    3.278827|   -0.000000|   -2.578962|   -0.468697|
|           0|          43|    3.276376|   -0.000000|   -2.577301|   -0.467036|
|           0|          44|    3.273838|   -0.000000|   -2.580101|   -0.469836|
|           0|          45|    3.271235|   -0.000000|   -2.579586|   -0.469321|
|           0|          46|    3.268573|   -0.000000|   -2.580897|   -0.470632|
|           0|          47|    3.265845|   -0.000000|   -2.581716|   -0.471451|
|           0|          48|    3.263040|   -0.000000|   -2.582818|   -0.472553|
|           0|          49|    3.260148|   -0.000000|   -2.583309|   -0.473044|
|           0|          50|    3.257169|   -0.000000|   -2.586314|   -0.476049|
|           0|          51|    3.254108|   -0.000000|   -2.586880|   -0.476615|
|           0|          52|    3.250972|   -0.000000|   -2.589154|   -0.478889|
|           0|          53|    3.247767|   -0.000000|   -2.588876|   -0.478611|
|           0|          54|    3.244495|   -0.000000|   -2.592211|   -0.481946|
|           0|          55|    3.241154|   -0.000000|   -2.592399|   -0.482134|
|           0|          56|    3.237742|   -0.000000|   -2.595780|   -0.485515|
|           0|          57|    3.234257|   -0.000000|   -2.596948|   -0.486683|
|           0|          58|    3.230696|   -0.000000|   -2.600485|   -0.490220|
|           0|          59|    3.227059|   -0.000000|   -2.602375|   -0.492110|
|           0|          60|    3.223343|   -0.000000|   -2.605466|   -0.495201|
|           0|          61|    3.219546|   -0.000000|   -2.606823|   -0.496558|
|           0|          62|    3.215667|   -0.000000|   -2.610733|   -0.500468|
|           0|          63|    3.211705|   -0.000000|   -2.612395|   -0.502130|
|           0|          64|    3.207661|   -0.000000|   -2.616216|   -0.505951|
|           0|          65|    3.203538|   -0.000000|   -2.617693|   -0.507428|
|           0|          66|    3.199341|   -0.000000|   -2.621687|   -0.511422|
|           0|          67|    3.195075|   -0.000000|   -2.623809|   -0.513544|
|           0|          68|    3.190745|   -0.000000|   -2.627694|   -0.517429|
|           0|          69|    3.186352|   -0.000000|   -2.629781|   -0.519516|
|           0|          70|    3.181898|   -0.000000|   -2.633637|   -0.523372|
|           0|          71|    3.177382|   -0.000000|   -2.636080|   -0.525815|
|           0|          72|    3.172799|   -0.000000|   -2.640223|   -0.529957|
|           0|          73|    3.168149|   -0.000000|   -2.642791|   -0.532526|
|           0|          74|    3.163427|   -0.000000|   -2.647446|   -0.537181|
|           0|          75|    3.158634|   -0.000000|   -2.650705|   -0.540440|
|           0|          76|    3.153771|   -0.000000|   -2.655274|   -0.545009|
|           0|          77|    3.148837|   -0.000000|   -2.658183|   -0.547918|
|           0|          78|    3.143837|   -0.000000|   -2.662948|   -0.552683|
|           0|          79|    3.138773|   -0.000000|   -2.666539|   -0.556274|
|           0|          80|    3.133649|   -0.000000|   -2.671296|   -0.561031|
|           0|          81|    3.128468|   -0.000000|   -2.675314|   -0.565049|
|           0|          82|    3.123234|   -0.000000|   -2.679997|   -0.569732|
|           0|          83|    3.117949|   -0.000000|   -2.685077|   -0.574812|
|           0|          84|    3.112615|   -0.000000|   -2.690075|   -0.579810|
|           0|          85|    3.107235|   -0.000000|   -2.696093|   -0.585828|
|           0|          86|    3.101811|   -0.000000|   -2.700604|   -0.590339|
|           0|          87|    3.096343|   -0.000000|   -2.707133|   -0.596868|
|           0|          88|    3.090834|   -0.000000|   -2.711976|   -0.601711|
|           0|          89|    3.085283|   -0.000000|   -2.719654|   -0.609389|
|           0|          90|    3.079693|   -0.000000|   -2.725090|   -0.614825|
|           0|          91|    3.074065|   -0.000000|   -2.732930|   -0.622665|
|           0|          92|    3.068403|   -0.000000|   -2.738995|   -0.628730|
|           0|          93|    3.062709|   -0.000000|   -2.746175|   -0.635910|
|           0|          94|    3.056986|   -0.000000|   -2.753271|   -0.643006|
|           0|          95|    3.051239|   -0.000000|   -2.760105|   -0.649840|
|           0|          96|    3.045470|   -0.000000|   -2.768971|   -0.658706|
|           0|          97|    3.039683|   -0.000000|   -2.776163|   -0.665898|
|           0|          98|    3.033881|   -0.000000|   -2.785015|   -0.674750|
|           0|          99|    3.028065|   -0.000000|   -2.792585|   -0.682320|
+-----------------------------------------------------------------------+
|        File Writing Summary       |              Filename             |
+-----------------------------------------------------------------------+
|SU2 binary restart                 |output_restart/restart_flow_00000.dat|
|Paraview                           |output_flow/flow_00000.vtu         |
|Paraview surface                   |output_surface_flow/surface_flow_00000.vtu|
+-----------------------------------------------------------------------+
CSysSolve::FGMRES(): system solved by initial guess.
+-----------------------------------------------------------------------------+
|   Time_Iter|  Inner_Iter|          CD|          CL|    rms[Rho]| relrms[Rho]|
+-----------------------------------------------------------------------------+
|           1|           0|    3.031859|   -0.000000|   -2.681553|    0.000000|
|           1|           1|    3.022149|   -0.000000|   -2.687329|   -0.005776|
|           1|           2|    3.007530|   -0.000000|   -2.689175|   -0.007622|
|           1|           3|    2.992866|   -0.000000|   -2.689561|   -0.008008|
|           1|           4|    2.979648|   -0.000000|   -2.687975|   -0.006422|
|           1|           5|    2.968347|   -0.000000|   -2.684141|   -0.002588|
|           1|           6|    2.958824|   -0.000000|   -2.683102|   -0.001550|
|           1|           7|    2.950729|   -0.000000|   -2.678962|    0.000000|
|           1|           8|    2.943727|   -0.000000|   -2.672208|    0.000000|
|           1|           9|    2.937754|   -0.000000|   -2.671231|    0.000000|
|           1|          10|    2.932404|   -0.000000|   -2.675402|   -0.004172|
|           1|          11|    2.927923|   -0.000000|   -2.672872|   -0.001642|
|           1|          12|    2.924226|   -0.000000|   -2.670532|    0.000000|
|           1|          13|    2.921606|   -0.000000|   -2.676804|   -0.006272|
|           1|          14|    2.920221|   -0.000000|   -2.679404|   -0.008872|
|           1|          15|    2.920155|   -0.000000|   -2.679861|   -0.009329|
|           1|          16|    2.921208|   -0.000000|   -2.689357|   -0.018825|
|           1|          17|    2.922956|   -0.000000|   -2.696575|   -0.026043|
|           1|          18|    2.924969|   -0.000000|   -2.697928|   -0.027396|
|           1|          19|    2.926833|   -0.000000|   -2.707419|   -0.036887|
|           1|          20|    2.928136|   -0.000000|   -2.722731|   -0.052199|
|           1|          21|    2.928469|   -0.000000|   -2.730127|   -0.059595|
|           1|          22|    2.927790|    0.000000|   -2.737100|   -0.066568|
|           1|          23|    2.925620|    0.000000|   -2.753124|   -0.082592|
|           1|          24|    2.922380|    0.000000|   -2.771657|   -0.101125|
|           1|          25|    2.918073|   -0.000000|   -2.781100|   -0.110568|
|           1|          26|    2.912546|   -0.000000|   -2.790019|   -0.119487|
|           1|          27|    2.906307|   -0.000000|   -2.810048|   -0.139516|
|           1|          28|    2.899472|   -0.000000|   -2.836227|   -0.165695|
|           1|          29|    2.892456|   -0.000000|   -2.852007|   -0.181476|
|           1|          30|    2.884924|   -0.000000|   -2.858755|   -0.188223|
|           1|          31|    2.876354|    0.000000|   -2.872522|   -0.201990|
|           1|          32|    2.867127|    0.000000|   -2.899627|   -0.229095|
|           1|          33|    2.857627|    0.000000|   -2.930763|   -0.260232|
|           1|          34|    2.848343|    0.000000|   -2.952848|   -0.282316|
|           1|          35|    2.839474|    0.000000|   -2.963272|   -0.292740|
|           1|          36|    2.831441|    0.000000|   -2.973911|   -0.303379|
|           1|          37|    2.823586|   -0.000000|   -2.994319|   -0.323787|
|           1|          38|    2.816496|   -0.000000|   -3.024388|   -0.353857|
|           1|          39|    2.809633|   -0.000000|   -3.057885|   -0.387353|
|           1|          40|    2.803219|   -0.000000|   -3.087525|   -0.416993|
|           1|          41|    2.796366|   -0.000000|   -3.110522|   -0.439990|
|           1|          42|    2.788905|   -0.000000|   -3.128622|   -0.458090|
|           1|          43|    2.781420|   -0.000000|   -3.143650|   -0.473118|
|           1|          44|    2.774114|   -0.000000|   -3.160928|   -0.490397|
|           1|          45|    2.766971|   -0.000000|   -3.185105|   -0.514573|
|           1|          46|    2.759898|   -0.000000|   -3.214292|   -0.543761|
|           1|          47|    2.753245|   -0.000000|   -3.246273|   -0.575741|
|           1|          48|    2.746386|   -0.000000|   -3.278639|   -0.608107|
|           1|          49|    2.739893|   -0.000000|   -3.306889|   -0.636357|
|           1|          50|    2.733565|   -0.000000|   -3.332438|   -0.661906|
|           1|          51|    2.727277|   -0.000000|   -3.353748|   -0.683217|
|           1|          52|    2.721418|   -0.000000|   -3.374344|   -0.703812|
|           1|          53|    2.716128|    0.000000|   -3.399208|   -0.728676|
|           1|          54|    2.711279|    0.000000|   -3.429002|   -0.758470|
|           1|          55|    2.707032|   -0.000000|   -3.453946|   -0.783414|
|           1|          56|    2.703105|   -0.000000|   -3.483654|   -0.813122|
|           1|          57|    2.699494|   -0.000000|   -3.510888|   -0.840356|
|           1|          58|    2.696265|   -0.000000|   -3.542124|   -0.871592|
|           1|          59|    2.693297|   -0.000000|   -3.576537|   -0.906005|
|           1|          60|    2.690823|   -0.000000|   -3.611069|   -0.940537|
|           1|          61|    2.688487|   -0.000000|   -3.640741|   -0.970209|
|           1|          62|    2.685779|   -0.000000|   -3.665932|   -0.995401|
|           1|          63|    2.682692|   -0.000000|   -3.689437|   -1.018905|
|           1|          64|    2.679682|   -0.000000|   -3.717872|   -1.047340|
|           1|          65|    2.677123|   -0.000000|   -3.752267|   -1.081735|
|           1|          66|    2.675305|   -0.000000|   -3.789391|   -1.118859|
|           1|          67|    2.673448|   -0.000000|   -3.811376|   -1.140844|
|           1|          68|    2.671886|   -0.000000|   -3.829022|   -1.158490|
|           1|          69|    2.670909|    0.000000|   -3.849372|   -1.178840|
|           1|          70|    2.670566|    0.000000|   -3.881546|   -1.211015|
|           1|          71|    2.670758|    0.000000|   -3.920477|   -1.249945|
|           1|          72|    2.671634|    0.000000|   -3.959628|   -1.289097|
|           1|          73|    2.672583|    0.000000|   -3.963608|   -1.293076|
|           1|          74|    2.673362|   -0.000000|   -3.942561|   -1.272029|
|           1|          75|    2.674033|   -0.000000|   -3.926127|   -1.255595|
|           1|          76|    2.674587|   -0.000000|   -3.934073|   -1.263541|
|           1|          77|    2.674818|   -0.000000|   -3.972621|   -1.302089|
|           1|          78|    2.674604|   -0.000000|   -4.015187|   -1.344655|
|           1|          79|    2.674143|   -0.000000|   -4.035313|   -1.364782|
|           1|          80|    2.673721|   -0.000000|   -4.044944|   -1.374412|
|           1|          81|    2.673586|   -0.000000|   -4.048578|   -1.378046|
|           1|          82|    2.673924|    0.000000|   -4.053459|   -1.382927|
|           1|          83|    2.674780|    0.000000|   -4.076042|   -1.405510|
|           1|          84|    2.675950|    0.000000|   -4.097306|   -1.426775|
|           1|          85|    2.677045|    0.000000|   -4.102260|   -1.431728|
|           1|          86|    2.678150|    0.000000|   -4.096130|   -1.425598|
|           1|          87|    2.679187|    0.000000|   -4.078437|   -1.407905|
|           1|          88|    2.679914|    0.000000|   -4.058838|   -1.388306|
|           1|          89|    2.680413|    0.000000|   -4.043780|   -1.373248|
|           1|          90|    2.680794|   -0.000000|   -4.044479|   -1.373947|
|           1|          91|    2.680943|   -0.000000|   -4.050956|   -1.380424|
|           1|          92|    2.680808|   -0.000000|   -4.060180|   -1.389648|
|           1|          93|    2.680579|   -0.000000|   -4.077002|   -1.406471|
|           1|          94|    2.680583|   -0.000000|   -4.088228|   -1.417696|
|           1|          95|    2.680988|   -0.000000|   -4.104563|   -1.434032|
|           1|          96|    2.681634|   -0.000000|   -4.126206|   -1.455674|
|           1|          97|    2.682282|   -0.000000|   -4.147134|   -1.476603|
|           1|          98|    2.683003|   -0.000000|   -4.159565|   -1.489033|
|           1|          99|    2.683820|    0.000000|   -4.165052|   -1.494520|
CSysSolve::FGMRES(): system solved by initial guess.
+-----------------------------------------------------------------------------+
|   Time_Iter|  Inner_Iter|          CD|          CL|    rms[Rho]| relrms[Rho]|
+-----------------------------------------------------------------------------+
|           2|           0|    2.677553|    0.000000|   -2.703777|    0.000000|
|           2|           1|    2.677394|    0.000000|   -2.732758|   -0.028981|
|           2|           2|    2.679227|    0.000000|   -2.765115|   -0.061338|
|           2|           3|    2.680869|    0.000000|   -2.796717|   -0.092940|
|           2|           4|    2.681453|   -0.000000|   -2.822027|   -0.118250|
|           2|           5|    2.681093|   -0.000000|   -2.836525|   -0.132748|
|           2|           6|    2.680296|   -0.000000|   -2.838409|   -0.134632|
|           2|           7|    2.679057|   -0.000000|   -2.830471|   -0.126694|
|           2|           8|    2.677066|   -0.000000|   -2.818803|   -0.115026|
|           2|           9|    2.673916|   -0.000000|   -2.807411|   -0.103634|
|           2|          10|    2.669425|   -0.000000|   -2.795571|   -0.091795|
|           2|          11|    2.663191|   -0.000000|   -2.780971|   -0.077194|
|           2|          12|    2.655364|   -0.000000|   -2.772890|   -0.069113|
|           2|          13|    2.646415|   -0.000000|   -2.776793|   -0.073016|
|           2|          14|    2.636664|   -0.000000|   -2.789488|   -0.085711|
|           2|          15|    2.626171|   -0.000000|   -2.800591|   -0.096815|
|           2|          16|    2.615186|   -0.000000|   -2.804516|   -0.100740|
|           2|          17|    2.604303|   -0.000000|   -2.811866|   -0.108089|
|           2|          18|    2.593851|   -0.000000|   -2.829789|   -0.126012|
|           2|          19|    2.584098|   -0.000000|   -2.857073|   -0.153296|
|           2|          20|    2.575391|   -0.000000|   -2.885823|   -0.182046|
|           2|          21|    2.567999|   -0.000000|   -2.909670|   -0.205893|
|           2|          22|    2.562222|   -0.000000|   -2.926571|   -0.222794|
|           2|          23|    2.558114|   -0.000000|   -2.944236|   -0.240459|
|           2|          24|    2.555414|   -0.000000|   -2.968743|   -0.264967|
|           2|          25|    2.553900|   -0.000000|   -3.000737|   -0.296960|
|           2|          26|    2.553566|   -0.000000|   -3.037450|   -0.333673|
|           2|          27|    2.553986|   -0.000000|   -3.074663|   -0.370886|
|           2|          28|    2.554749|   -0.000000|   -3.109759|   -0.405982|
|           2|          29|    2.555493|   -0.000000|   -3.143188|   -0.439411|
|           2|          30|    2.555906|   -0.000000|   -3.174629|   -0.470852|
|           2|          31|    2.555756|   -0.000000|   -3.204968|   -0.501191|
|           2|          32|    2.554887|   -0.000000|   -3.233147|   -0.529370|
|           2|          33|    2.553273|   -0.000000|   -3.260977|   -0.557200|
|           2|          34|    2.550986|   -0.000000|   -3.289919|   -0.586142|
|           2|          35|    2.548137|   -0.000000|   -3.322505|   -0.618729|
|           2|          36|    2.544893|   -0.000000|   -3.358541|   -0.654765|
|           2|          37|    2.541389|   -0.000000|   -3.397078|   -0.693301|
|           2|          38|    2.537739|   -0.000000|   -3.436168|   -0.732391|
|           2|          39|    2.534040|   -0.000000|   -3.475794|   -0.772017|
|           2|          40|    2.530361|   -0.000000|   -3.512897|   -0.809120|
|           2|          41|    2.526745|   -0.000000|   -3.550876|   -0.847099|
|           2|          42|    2.523200|   -0.000000|   -3.588805|   -0.885028|
|           2|          43|    2.519726|   -0.000000|   -3.624313|   -0.920536|
|           2|          44|    2.516330|   -0.000000|   -3.656507|   -0.952730|
|           2|          45|    2.513024|   -0.000000|   -3.682316|   -0.978539|
|           2|          46|    2.509851|   -0.000000|   -3.702594|   -0.998817|
|           2|          47|    2.506834|   -0.000000|   -3.723021|   -1.019245|
|           2|          48|    2.503998|   -0.000000|   -3.751173|   -1.047396|
|           2|          49|    2.501366|   -0.000000|   -3.783288|   -1.079511|
|           2|          50|    2.498948|   -0.000000|   -3.815165|   -1.111389|
|           2|          51|    2.496744|   -0.000000|   -3.845963|   -1.142186|
|           2|          52|    2.494736|   -0.000000|   -3.872285|   -1.168508|
|           2|          53|    2.492898|   -0.000000|   -3.886374|   -1.182597|
|           2|          54|    2.491206|   -0.000000|   -3.889991|   -1.186214|
|           2|          55|    2.489648|   -0.000000|   -3.884722|   -1.180945|
|           2|          56|    2.488252|   -0.000000|   -3.873534|   -1.169757|
|           2|          57|    2.487080|   -0.000000|   -3.863987|   -1.160210|
|           2|          58|    2.486131|   -0.000000|   -3.852561|   -1.148785|
|           2|          59|    2.485333|   -0.000000|   -3.849391|   -1.145614|
|           2|          60|    2.484707|   -0.000000|   -3.857086|   -1.153309|
|           2|          61|    2.484265|   -0.000000|   -3.859007|   -1.155230|
|           2|          62|    2.483992|   -0.000000|   -3.861674|   -1.157897|
|           2|          63|    2.483840|   -0.000000|   -3.854826|   -1.151049|
|           2|          64|    2.483785|   -0.000000|   -3.826742|   -1.122965|
|           2|          65|    2.483789|   -0.000000|   -3.798881|   -1.095104|
|           2|          66|    2.483821|   -0.000000|   -3.780023|   -1.076246|
|           2|          67|    2.483827|   -0.000000|   -3.772629|   -1.068852|
|           2|          68|    2.483853|   -0.000000|   -3.777216|   -1.073440|
|           2|          69|    2.483957|   -0.000000|   -3.782961|   -1.079184|
|           2|          70|    2.484126|   -0.000000|   -3.792136|   -1.088359|
|           2|          71|    2.484265|   -0.000000|   -3.809407|   -1.105631|
|           2|          72|    2.484387|   -0.000000|   -3.826675|   -1.122898|
|           2|          73|    2.484518|   -0.000000|   -3.837722|   -1.133945|
|           2|          74|    2.484663|   -0.000000|   -3.843690|   -1.139913|
|           2|          75|    2.484831|   -0.000000|   -3.849667|   -1.145890|
|           2|          76|    2.485028|   -0.000000|   -3.861523|   -1.157746|
|           2|          77|    2.485253|   -0.000000|   -3.874620|   -1.170843|
|           2|          78|    2.485497|   -0.000000|   -3.883541|   -1.179764|
|           2|          79|    2.485755|   -0.000000|   -3.897635|   -1.193858|
|           2|          80|    2.486021|   -0.000000|   -3.917126|   -1.213349|
|           2|          81|    2.486287|   -0.000000|   -3.935774|   -1.231997|
|           2|          82|    2.486550|   -0.000000|   -3.967936|   -1.264159|
|           2|          83|    2.486811|   -0.000000|   -4.005550|   -1.301773|
|           2|          84|    2.487072|   -0.000000|   -4.039723|   -1.335946|
|           2|          85|    2.487332|   -0.000000|   -4.066706|   -1.362929|
|           2|          86|    2.487588|   -0.000000|   -4.090792|   -1.387015|
|           2|          87|    2.487830|   -0.000000|   -4.103206|   -1.399429|
|           2|          88|    2.488048|   -0.000000|   -4.108835|   -1.405058|
|           2|          89|    2.488241|   -0.000000|   -4.124838|   -1.421061|
|           2|          90|    2.488413|   -0.000000|   -4.145402|   -1.441626|
|           2|          91|    2.488574|   -0.000000|   -4.162490|   -1.458713|
|           2|          92|    2.488734|   -0.000000|   -4.173303|   -1.469526|
|           2|          93|    2.488903|   -0.000000|   -4.179095|   -1.475318|
|           2|          94|    2.489085|   -0.000000|   -4.182907|   -1.479130|
|           2|          95|    2.489283|   -0.000000|   -4.186315|   -1.482538|
|           2|          96|    2.489491|   -0.000000|   -4.193060|   -1.489283|
|           2|          97|    2.489704|   -0.000000|   -4.196472|   -1.492696|
|           2|          98|    2.489914|   -0.000000|   -4.192455|   -1.488678|
|           2|          99|    2.490118|   -0.000000|   -4.193850|   -1.490074|
CSysSolve::FGMRES(): system solved by initial guess.
+-----------------------------------------------------------------------------+
|   Time_Iter|  Inner_Iter|          CD|          CL|    rms[Rho]| relrms[Rho]|
+-----------------------------------------------------------------------------+
|           3|           0|    2.492805|   -0.000000|   -2.608242|    0.000000|
|           3|           1|    2.494008|   -0.000000|   -2.644584|   -0.036342|
|           3|           2|    2.494116|   -0.000000|   -2.685611|   -0.077369|
|           3|           3|    2.493458|   -0.000000|   -2.726368|   -0.118126|
|           3|           4|    2.492341|   -0.000000|   -2.759262|   -0.151020|
|           3|           5|    2.490814|   -0.000000|   -2.778781|   -0.170538|
|           3|           6|    2.488964|   -0.000000|   -2.784994|   -0.176752|
|           3|           7|    2.486824|   -0.000000|   -2.780913|   -0.172671|
|           3|           8|    2.484389|   -0.000000|   -2.771986|   -0.163744|
|           3|           9|    2.481677|   -0.000000|   -2.768404|   -0.160162|
|           3|          10|    2.478723|   -0.000000|   -2.774457|   -0.166215|
|           3|          11|    2.475563|    0.000000|   -2.789219|   -0.180977|
|           3|          12|    2.472231|    0.000000|   -2.807349|   -0.199107|
|           3|          13|    2.468751|    0.000000|   -2.823118|   -0.214876|
|           3|          14|    2.465130|    0.000000|   -2.834131|   -0.225889|
|           3|          15|    2.461363|    0.000000|   -2.848035|   -0.239793|
|           3|          16|    2.457429|    0.000000|   -2.870632|   -0.262390|
|           3|          17|    2.453283|   -0.000000|   -2.902131|   -0.293889|
|           3|          18|    2.448893|   -0.000000|   -2.939161|   -0.330919|
|           3|          19|    2.444239|   -0.000000|   -2.977326|   -0.369084|
|           3|          20|    2.439307|   -0.000000|   -3.013848|   -0.405606|
|           3|          21|    2.434106|   -0.000000|   -3.047295|   -0.439053|
|           3|          22|    2.428658|   -0.000000|   -3.078192|   -0.469950|
|           3|          23|    2.423009|   -0.000000|   -3.107276|   -0.499034|
|           3|          24|    2.417245|   -0.000000|   -3.137280|   -0.529037|
|           3|          25|    2.411477|   -0.000000|   -3.171424|   -0.563182|
|           3|          26|    2.405840|   -0.000000|   -3.210895|   -0.602653|
|           3|          27|    2.400468|   -0.000000|   -3.253852|   -0.645610|
|           3|          28|    2.395493|   -0.000000|   -3.299799|   -0.691557|
|           3|          29|    2.391017|   -0.000000|   -3.346330|   -0.738088|
|           3|          30|    2.387101|   -0.000000|   -3.392672|   -0.784430|
|           3|          31|    2.383766|   -0.000000|   -3.437854|   -0.829612|
|           3|          32|    2.380981|   -0.000000|   -3.480858|   -0.872616|
|           3|          33|    2.378682|   -0.000000|   -3.522750|   -0.914508|
|           3|          34|    2.376782|   -0.000000|   -3.562321|   -0.954078|
|           3|          35|    2.375179|   -0.000000|   -3.600898|   -0.992656|
|           3|          36|    2.373773|   -0.000000|   -3.636770|   -1.028528|
|           3|          37|    2.372470|    0.000000|   -3.669314|   -1.061072|
|           3|          38|    2.371196|    0.000000|   -3.700281|   -1.092039|
|           3|          39|    2.369901|    0.000000|   -3.730097|   -1.121855|
|           3|          40|    2.368558|    0.000000|   -3.757439|   -1.149197|
|           3|          41|    2.367149|    0.000000|   -3.782553|   -1.174311|
|           3|          42|    2.365686|    0.000000|   -3.806690|   -1.198448|
|           3|          43|    2.364195|    0.000000|   -3.833769|   -1.225527|
|           3|          44|    2.362703|    0.000000|   -3.859163|   -1.250921|
|           3|          45|    2.361241|    0.000000|   -3.880757|   -1.272515|
|           3|          46|    2.359836|    0.000000|   -3.897459|   -1.289217|
|           3|          47|    2.358511|    0.000000|   -3.913028|   -1.304786|
|           3|          48|    2.357285|    0.000000|   -3.930475|   -1.322233|
|           3|          49|    2.356170|    0.000000|   -3.951321|   -1.343079|
|           3|          50|    2.355173|    0.000000|   -3.973575|   -1.365333|
|           3|          51|    2.354293|   -0.000000|   -3.995939|   -1.387697|
|           3|          52|    2.353527|   -0.000000|   -4.017534|   -1.409292|
|           3|          53|    2.352870|   -0.000000|   -4.039162|   -1.430920|
|           3|          54|    2.352314|   -0.000000|   -4.067195|   -1.458953|
|           3|          55|    2.351850|   -0.000000|   -4.097083|   -1.488841|
|           3|          56|    2.351466|   -0.000000|   -4.125046|   -1.516804|
|           3|          57|    2.351154|   -0.000000|   -4.151340|   -1.543098|
|           3|          58|    2.350906|   -0.000000|   -4.174346|   -1.566104|
|           3|          59|    2.350714|   -0.000000|   -4.194007|   -1.585764|
|           3|          60|    2.350574|   -0.000000|   -4.211117|   -1.602875|
|           3|          61|    2.350479|   -0.000000|   -4.226467|   -1.618225|
|           3|          62|    2.350424|   -0.000000|   -4.241273|   -1.633031|
|           3|          63|    2.350404|   -0.000000|   -4.255412|   -1.647170|
|           3|          64|    2.350412|   -0.000000|   -4.268125|   -1.659883|
|           3|          65|    2.350443|   -0.000000|   -4.279835|   -1.671593|
|           3|          66|    2.350492|   -0.000000|   -4.290720|   -1.682478|
|           3|          67|    2.350554|   -0.000000|   -4.301126|   -1.692884|
|           3|          68|    2.350624|   -0.000000|   -4.311462|   -1.703220|
|           3|          69|    2.350699|   -0.000000|   -4.322953|   -1.714711|
|           3|          70|    2.350777|   -0.000000|   -4.332706|   -1.724464|
|           3|          71|    2.350853|   -0.000000|   -4.340749|   -1.732507|
|           3|          72|    2.350928|   -0.000000|   -4.348821|   -1.740579|
|           3|          73|    2.351001|   -0.000000|   -4.357002|   -1.748760|
|           3|          74|    2.351071|   -0.000000|   -4.365633|   -1.757391|
|           3|          75|    2.351139|   -0.000000|   -4.374688|   -1.766446|
|           3|          76|    2.351205|   -0.000000|   -4.383985|   -1.775743|
|           3|          77|    2.351270|   -0.000000|   -4.393308|   -1.785066|
|           3|          78|    2.351334|   -0.000000|   -4.401969|   -1.793727|
|           3|          79|    2.351398|   -0.000000|   -4.411131|   -1.802889|
|           3|          80|    2.351461|   -0.000000|   -4.418219|   -1.809977|
|           3|          81|    2.351523|   -0.000000|   -4.423179|   -1.814937|
|           3|          82|    2.351584|   -0.000000|   -4.425548|   -1.817306|
|           3|          83|    2.351643|   -0.000000|   -4.426655|   -1.818413|
|           3|          84|    2.351700|   -0.000000|   -4.427292|   -1.819050|
|           3|          85|    2.351753|   -0.000000|   -4.429041|   -1.820799|
|           3|          86|    2.351802|   -0.000000|   -4.432775|   -1.824533|
|           3|          87|    2.351847|   -0.000000|   -4.436515|   -1.828273|
|           3|          88|    2.351887|   -0.000000|   -4.442522|   -1.834280|
|           3|          89|    2.351923|   -0.000000|   -4.450793|   -1.842551|
|           3|          90|    2.351955|   -0.000000|   -4.466221|   -1.857979|
|           3|          91|    2.351983|   -0.000000|   -4.487580|   -1.879338|
|           3|          92|    2.352007|   -0.000000|   -4.504728|   -1.896486|
|           3|          93|    2.352028|   -0.000000|   -4.518406|   -1.910164|
|           3|          94|    2.352045|   -0.000000|   -4.529677|   -1.921435|
|           3|          95|    2.352058|   -0.000000|   -4.540744|   -1.932502|
|           3|          96|    2.352069|   -0.000000|   -4.551405|   -1.943163|
|           3|          97|    2.352077|   -0.000000|   -4.563404|   -1.955162|
|           3|          98|    2.352081|   -0.000000|   -4.577704|   -1.969462|
|           3|          99|    2.352083|   -0.000000|   -4.593085|   -1.984843|
CSysSolve::FGMRES(): system solved by initial guess.
+-----------------------------------------------------------------------------+
|   Time_Iter|  Inner_Iter|          CD|          CL|    rms[Rho]| relrms[Rho]|
+-----------------------------------------------------------------------------+
|           4|           0|    2.351247|   -0.000000|   -2.529910|    0.000000|
|           4|           1|    2.350788|   -0.000000|   -2.572194|   -0.042284|
|           4|           2|    2.350686|    0.000000|   -2.620401|   -0.090491|
|           4|           3|    2.350836|    0.000000|   -2.669222|   -0.139311|
|           4|           4|    2.351137|    0.000000|   -2.710175|   -0.180265|
|           4|           5|    2.351514|    0.000000|   -2.737387|   -0.207476|
|           4|           6|    2.351916|    0.000000|   -2.750516|   -0.220606|
|           4|           7|    2.352299|    0.000000|   -2.753973|   -0.224063|
|           4|           8|    2.352622|    0.000000|   -2.758377|   -0.228466|
|           4|           9|    2.352839|    0.000000|   -2.769080|   -0.239170|
|           4|          10|    2.352895|    0.000000|   -2.787935|   -0.258024|
|           4|          11|    2.352728|    0.000000|   -2.812595|   -0.282684|
|           4|          12|    2.352273|    0.000000|   -2.838964|   -0.309054|
|           4|          13|    2.351458|    0.000000|   -2.864362|   -0.334452|
|           4|          14|    2.350229|    0.000000|   -2.887848|   -0.357938|
|           4|          15|    2.348540|    0.000000|   -2.911981|   -0.382071|
|           4|          16|    2.346362|    0.000000|   -2.942574|   -0.412664|
|           4|          17|    2.343686|    0.000000|   -2.979847|   -0.449937|
|           4|          18|    2.340522|    0.000000|   -3.022167|   -0.492257|
|           4|          19|    2.336909|    0.000000|   -3.066921|   -0.537010|
|           4|          20|    2.332918|    0.000000|   -3.112163|   -0.582252|
|           4|          21|    2.328616|   -0.000000|   -3.155630|   -0.625719|
|           4|          22|    2.324096|   -0.000000|   -3.197868|   -0.667958|
|           4|          23|    2.319450|   -0.000000|   -3.237966|   -0.708056|
|           4|          24|    2.314781|   -0.000000|   -3.276886|   -0.746976|
|           4|          25|    2.310169|   -0.000000|   -3.315459|   -0.785549|
|           4|          26|    2.305700|   -0.000000|   -3.353399|   -0.823489|
|           4|          27|    2.301480|   -0.000000|   -3.392256|   -0.862345|
|           4|          28|    2.297588|   -0.000000|   -3.430724|   -0.900813|
|           4|          29|    2.294056|   -0.000000|   -3.469716|   -0.939806|
|           4|          30|    2.290898|   -0.000000|   -3.504653|   -0.974743|
|           4|          31|    2.288105|   -0.000000|   -3.537768|   -1.007857|
|           4|          32|    2.285653|   -0.000000|   -3.568202|   -1.038292|
|           4|          33|    2.283499|   -0.000000|   -3.596657|   -1.066747|
|           4|          34|    2.281587|   -0.000000|   -3.623302|   -1.093392|
|           4|          35|    2.279883|   -0.000000|   -3.648078|   -1.118168|
|           4|          36|    2.278320|   -0.000000|   -3.669296|   -1.139386|
|           4|          37|    2.276822|   -0.000000|   -3.691022|   -1.161112|
|           4|          38|    2.275363|   -0.000000|   -3.710612|   -1.180702|
|           4|          39|    2.273961|   -0.000000|   -3.727866|   -1.197955|
|           4|          40|    2.272613|   -0.000000|   -3.747411|   -1.217500|
|           4|          41|    2.271305|   -0.000000|   -3.767623|   -1.237713|
|           4|          42|    2.270030|   -0.000000|   -3.785478|   -1.255568|
|           4|          43|    2.268791|   -0.000000|   -3.801651|   -1.271741|
|           4|          44|    2.267596|   -0.000000|   -3.822126|   -1.292216|
|           4|          45|    2.266456|   -0.000000|   -3.842886|   -1.312976|
|           4|          46|    2.265379|   -0.000000|   -3.861478|   -1.331568|
|           4|          47|    2.264375|   -0.000000|   -3.879763|   -1.349852|
|           4|          48|    2.263445|   -0.000000|   -3.900367|   -1.370456|
|           4|          49|    2.262599|   -0.000000|   -3.919259|   -1.389348|
|           4|          50|    2.261844|   -0.000000|   -3.938062|   -1.408152|
|           4|          51|    2.261185|   -0.000000|   -3.954043|   -1.424133|
|           4|          52|    2.260622|   -0.000000|   -3.967175|   -1.437265|
|           4|          53|    2.260150|   -0.000000|   -3.974832|   -1.444922|
|           4|          54|    2.259761|   -0.000000|   -3.985353|   -1.455443|
|           4|          55|    2.259446|   -0.000000|   -3.995947|   -1.466036|
|           4|          56|    2.259196|   -0.000000|   -4.008872|   -1.478962|
|           4|          57|    2.259001|   -0.000000|   -4.024716|   -1.494806|
|           4|          58|    2.258854|   -0.000000|   -4.040676|   -1.510766|
|           4|          59|    2.258743|   -0.000000|   -4.054994|   -1.525083|
|           4|          60|    2.258664|   -0.000000|   -4.067976|   -1.538065|
|           4|          61|    2.258614|   -0.000000|   -4.081140|   -1.551230|
|           4|          62|    2.258592|   -0.000000|   -4.103453|   -1.573543|
|           4|          63|    2.258592|   -0.000000|   -4.134862|   -1.604952|
|           4|          64|    2.258612|   -0.000000|   -4.170403|   -1.640493|
|           4|          65|    2.258648|   -0.000000|   -4.201082|   -1.671172|
|           4|          66|    2.258699|   -0.000000|   -4.226157|   -1.696247|
|           4|          67|    2.258760|   -0.000000|   -4.247080|   -1.717169|
|           4|          68|    2.258829|   -0.000000|   -4.262226|   -1.732315|
|           4|          69|    2.258907|   -0.000000|   -4.278252|   -1.748341|
|           4|          70|    2.258991|   -0.000000|   -4.291963|   -1.762053|
|           4|          71|    2.259079|   -0.000000|   -4.300630|   -1.770720|
|           4|          72|    2.259169|   -0.000000|   -4.310421|   -1.780511|
|           4|          73|    2.259260|   -0.000000|   -4.321255|   -1.791344|
|           4|          74|    2.259352|   -0.000000|   -4.332481|   -1.802571|
|           4|          75|    2.259445|   -0.000000|   -4.344988|   -1.815077|
|           4|          76|    2.259538|   -0.000000|   -4.360908|   -1.830998|
|           4|          77|    2.259632|   -0.000000|   -4.378215|   -1.848304|
|           4|          78|    2.259726|   -0.000000|   -4.396000|   -1.866090|
|           4|          79|    2.259818|   -0.000000|   -4.411934|   -1.882024|
|           4|          80|    2.259908|   -0.000000|   -4.426890|   -1.896980|
|           4|          81|    2.259999|   -0.000000|   -4.440749|   -1.910838|
|           4|          82|    2.260088|   -0.000000|   -4.451849|   -1.921939|
|           4|          83|    2.260177|   -0.000000|   -4.459741|   -1.929830|
|           4|          84|    2.260263|   -0.000000|   -4.464937|   -1.935026|
|           4|          85|    2.260347|   -0.000000|   -4.467704|   -1.937794|
|           4|          86|    2.260427|   -0.000000|   -4.468853|   -1.938943|
|           4|          87|    2.260502|   -0.000000|   -4.469609|   -1.939699|
|           4|          88|    2.260572|   -0.000000|   -4.471814|   -1.941903|
|           4|          89|    2.260638|   -0.000000|   -4.474690|   -1.944779|
|           4|          90|    2.260699|   -0.000000|   -4.475396|   -1.945486|
|           4|          91|    2.260756|   -0.000000|   -4.479059|   -1.949149|
|           4|          92|    2.260809|   -0.000000|   -4.484037|   -1.954127|
|           4|          93|    2.260858|   -0.000000|   -4.490295|   -1.960385|
|           4|          94|    2.260902|   -0.000000|   -4.498468|   -1.968558|
|           4|          95|    2.260941|   -0.000000|   -4.508706|   -1.978796|
|           4|          96|    2.260975|   -0.000000|   -4.521003|   -1.991093|
|           4|          97|    2.261005|   -0.000000|   -4.534295|   -2.004384|
|           4|          98|    2.261033|    0.000000|   -4.548610|   -2.018699|
|           4|          99|    2.261059|    0.000000|   -4.564451|   -2.034541|
CSysSolve::FGMRES(): system solved by initial guess.
+-----------------------------------------------------------------------------+
|   Time_Iter|  Inner_Iter|          CD|          CL|    rms[Rho]| relrms[Rho]|
+-----------------------------------------------------------------------------+
|           5|           0|    2.261170|   -0.000000|   -2.472527|    0.000000|
|           5|           1|    2.261101|   -0.000000|   -2.519622|   -0.047094|
|           5|           2|    2.260997|   -0.000000|   -2.572601|   -0.100074|
|           5|           3|    2.260946|   -0.000000|   -2.625986|   -0.153458|
|           5|           4|    2.260954|   -0.000000|   -2.670752|   -0.198225|
|           5|           5|    2.260967|   -0.000000|   -2.703139|   -0.230612|
|           5|           6|    2.260915|   -0.000000|   -2.725620|   -0.253093|
|           5|           7|    2.260745|   -0.000000|   -2.745291|   -0.272764|
|           5|           8|    2.260418|   -0.000000|   -2.767027|   -0.294500|
|           5|           9|    2.259909|   -0.000000|   -2.790883|   -0.318356|
|           5|          10|    2.259191|   -0.000000|   -2.815100|   -0.342573|
|           5|          11|    2.258248|   -0.000000|   -2.839345|   -0.366818|
|           5|          12|    2.257069|   -0.000000|   -2.862973|   -0.390446|
|           5|          13|    2.255652|   -0.000000|   -2.890111|   -0.417584|
|           5|          14|    2.253997|   -0.000000|   -2.924758|   -0.452231|
|           5|          15|    2.252114|   -0.000000|   -2.965995|   -0.493467|
|           5|          16|    2.250018|   -0.000000|   -3.012127|   -0.539600|
|           5|          17|    2.247729|   -0.000000|   -3.060605|   -0.588077|
|           5|          18|    2.245271|   -0.000000|   -3.109929|   -0.637402|
|           5|          19|    2.242672|   -0.000000|   -3.158511|   -0.685984|
|           5|          20|    2.239961|   -0.000000|   -3.206024|   -0.733497|
|           5|          21|    2.237170|   -0.000000|   -3.252755|   -0.780228|
|           5|          22|    2.234337|   -0.000000|   -3.299434|   -0.826907|
|           5|          23|    2.231496|   -0.000000|   -3.345221|   -0.872694|
|           5|          24|    2.228676|   -0.000000|   -3.390676|   -0.918149|
|           5|          25|    2.225901|   -0.000000|   -3.436835|   -0.964308|
|           5|          26|    2.223196|   -0.000000|   -3.483235|   -1.010708|
|           5|          27|    2.220585|   -0.000000|   -3.529053|   -1.056526|
|           5|          28|    2.218086|   -0.000000|   -3.574981|   -1.102454|
|           5|          29|    2.215714|   -0.000000|   -3.620921|   -1.148393|
|           5|          30|    2.213482|   -0.000000|   -3.664447|   -1.191919|
|           5|          31|    2.211394|   -0.000000|   -3.707311|   -1.234784|
|           5|          32|    2.209457|   -0.000000|   -3.748869|   -1.276342|
|           5|          33|    2.207663|   -0.000000|   -3.788245|   -1.315718|
|           5|          34|    2.206009|   -0.000000|   -3.825099|   -1.352572|
|           5|          35|    2.204489|   -0.000000|   -3.860131|   -1.387604|
|           5|          36|    2.203087|   -0.000000|   -3.896329|   -1.423802|
|           5|          37|    2.201789|   -0.000000|   -3.926706|   -1.454179|
|           5|          38|    2.200580|   -0.000000|   -3.951409|   -1.478882|
|           5|          39|    2.199442|   -0.000000|   -3.972459|   -1.499932|
|           5|          40|    2.198361|   -0.000000|   -3.992022|   -1.519494|
|           5|          41|    2.197338|   -0.000000|   -4.012871|   -1.540344|
|           5|          42|    2.196370|   -0.000000|   -4.034335|   -1.561807|
|           5|          43|    2.195457|   -0.000000|   -4.055690|   -1.583163|
|           5|          44|    2.194601|   -0.000000|   -4.076792|   -1.604264|
|           5|          45|    2.193804|   -0.000000|   -4.096950|   -1.624423|
|           5|          46|    2.193072|   -0.000000|   -4.116764|   -1.644237|
|           5|          47|    2.192408|   -0.000000|   -4.138233|   -1.665705|
|           5|          48|    2.191815|   -0.000000|   -4.161018|   -1.688491|
|           5|          49|    2.191296|   -0.000000|   -4.184814|   -1.712287|
|           5|          50|    2.190850|   -0.000000|   -4.209378|   -1.736851|
|           5|          51|    2.190474|   -0.000000|   -4.234477|   -1.761950|
|           5|          52|    2.190164|   -0.000000|   -4.259913|   -1.787386|
|           5|          53|    2.189916|   -0.000000|   -4.285114|   -1.812587|
|           5|          54|    2.189723|   -0.000000|   -4.309401|   -1.836874|
|           5|          55|    2.189579|   -0.000000|   -4.333080|   -1.860553|
|           5|          56|    2.189478|   -0.000000|   -4.355839|   -1.883312|
|           5|          57|    2.189414|   -0.000000|   -4.377623|   -1.905096|
|           5|          58|    2.189381|   -0.000000|   -4.398555|   -1.926028|
|           5|          59|    2.189374|   -0.000000|   -4.418827|   -1.946300|
|           5|          60|    2.189386|   -0.000000|   -4.438675|   -1.966148|
|           5|          61|    2.189415|   -0.000000|   -4.458087|   -1.985560|
|           5|          62|    2.189457|   -0.000000|   -4.479141|   -2.006613|
|           5|          63|    2.189510|   -0.000000|   -4.501693|   -2.029166|
|           5|          64|    2.189571|   -0.000000|   -4.523130|   -2.050603|
|           5|          65|    2.189638|   -0.000000|   -4.542046|   -2.069519|
|           5|          66|    2.189710|   -0.000000|   -4.558094|   -2.085567|
|           5|          67|    2.189785|   -0.000000|   -4.573449|   -2.100922|
|           5|          68|    2.189860|   -0.000000|   -4.588896|   -2.116369|
|           5|          69|    2.189937|   -0.000000|   -4.605344|   -2.132816|
|           5|          70|    2.190014|   -0.000000|   -4.623312|   -2.150785|
|           5|          71|    2.190090|   -0.000000|   -4.643170|   -2.170643|
|           5|          72|    2.190167|   -0.000000|   -4.665047|   -2.192520|
|           5|          73|    2.190242|   -0.000000|   -4.688768|   -2.216240|
|           5|          74|    2.190316|   -0.000000|   -4.714011|   -2.241484|
|           5|          75|    2.190388|   -0.000000|   -4.740360|   -2.267833|
|           5|          76|    2.190457|   -0.000000|   -4.767387|   -2.294859|
|           5|          77|    2.190525|   -0.000000|   -4.794668|   -2.322140|
|           5|          78|    2.190590|   -0.000000|   -4.821850|   -2.349323|
|           5|          79|    2.190654|   -0.000000|   -4.848588|   -2.376061|
|           5|          80|    2.190716|   -0.000000|   -4.874338|   -2.401811|
|           5|          81|    2.190775|   -0.000000|   -4.898947|   -2.426420|
|           5|          82|    2.190831|   -0.000000|   -4.922311|   -2.449784|
|           5|          83|    2.190884|   -0.000000|   -4.944386|   -2.471859|
|           5|          84|    2.190933|   -0.000000|   -4.965259|   -2.492731|
|           5|          85|    2.190978|   -0.000000|   -4.984910|   -2.512383|
|           5|          86|    2.191020|   -0.000000|   -5.003468|   -2.530940|
|           5|          87|    2.191059|   -0.000000|   -5.020800|   -2.548272|
|           5|          88|    2.191095|   -0.000000|   -5.037142|   -2.564614|
|           5|          89|    2.191127|   -0.000000|   -5.052605|   -2.580078|
|           5|          90|    2.191156|   -0.000000|   -5.067207|   -2.594680|
|           5|          91|    2.191183|   -0.000000|   -5.081139|   -2.608612|
|           5|          92|    2.191206|   -0.000000|   -5.094618|   -2.622091|
|           5|          93|    2.191227|   -0.000000|   -5.107651|   -2.635124|
|           5|          94|    2.191246|   -0.000000|   -5.120254|   -2.647727|
|           5|          95|    2.191262|   -0.000000|   -5.132456|   -2.659929|
|           5|          96|    2.191277|   -0.000000|   -5.144315|   -2.671787|
|           5|          97|    2.191289|   -0.000000|   -5.155814|   -2.683287|
|           5|          98|    2.191301|   -0.000000|   -5.167001|   -2.694473|
|           5|          99|    2.191310|   -0.000000|   -5.177891|   -2.705364|
CSysSolve::FGMRES(): system solved by initial guess.
+-----------------------------------------------------------------------------+
|   Time_Iter|  Inner_Iter|          CD|          CL|    rms[Rho]| relrms[Rho]|
+-----------------------------------------------------------------------------+
|           6|           0|    2.191397|   -0.000000|   -2.429188|    0.000000|
|           6|           1|    2.191282|   -0.000000|   -2.480965|   -0.051777|
|           6|           2|    2.190988|   -0.000000|   -2.538343|   -0.109155|
|           6|           3|    2.190556|   -0.000000|   -2.597575|   -0.168387|
|           6|           4|    2.190027|   -0.000000|   -2.650616|   -0.221428|
|           6|           5|    2.189434|   -0.000000|   -2.692064|   -0.262876|
|           6|           6|    2.188800|   -0.000000|   -2.724487|   -0.295299|
|           6|           7|    2.188136|   -0.000000|   -2.753487|   -0.324299|
|           6|           8|    2.187446|   -0.000000|   -2.784064|   -0.354876|
|           6|           9|    2.186722|   -0.000000|   -2.817880|   -0.388692|
|           6|          10|    2.185950|   -0.000000|   -2.853216|   -0.424028|
|           6|          11|    2.185117|   -0.000000|   -2.888618|   -0.459430|
|           6|          12|    2.184206|   -0.000000|   -2.924044|   -0.494856|
|           6|          13|    2.183203|   -0.000000|   -2.960687|   -0.531499|
|           6|          14|    2.182095|   -0.000000|   -2.999019|   -0.569831|
|           6|          15|    2.180870|   -0.000000|   -3.039823|   -0.610635|
|           6|          16|    2.179522|   -0.000000|   -3.084887|   -0.655699|
|           6|          17|    2.178048|   -0.000000|   -3.134945|   -0.705757|
|           6|          18|    2.176451|   -0.000000|   -3.189917|   -0.760729|
|           6|          19|    2.174741|   -0.000000|   -3.248162|   -0.818974|
|           6|          20|    2.172931|   -0.000000|   -3.308313|   -0.879125|
|           6|          21|    2.171041|   -0.000000|   -3.368938|   -0.939750|
|           6|          22|    2.169092|   -0.000000|   -3.429797|   -1.000609|
|           6|          23|    2.167110|   -0.000000|   -3.490189|   -1.061001|
|           6|          24|    2.165120|   -0.000000|   -3.550003|   -1.120815|
|           6|          25|    2.163149|   -0.000000|   -3.609225|   -1.180037|
|           6|          26|    2.161220|   -0.000000|   -3.667792|   -1.238604|
|           6|          27|    2.159356|    0.000000|   -3.725779|   -1.296591|
|           6|          28|    2.157574|    0.000000|   -3.783028|   -1.353840|
|           6|          29|    2.155891|    0.000000|   -3.839382|   -1.410194|
|           6|          30|    2.154315|    0.000000|   -3.894477|   -1.465289|
|           6|          31|    2.152850|    0.000000|   -3.948033|   -1.518845|
|           6|          32|    2.151497|    0.000000|   -3.999780|   -1.570592|
|           6|          33|    2.150251|    0.000000|   -4.049478|   -1.620290|
|           6|          34|    2.149105|    0.000000|   -4.096959|   -1.667771|
|           6|          35|    2.148050|    0.000000|   -4.142154|   -1.712966|
|           6|          36|    2.147074|    0.000000|   -4.184995|   -1.755807|
|           6|          37|    2.146166|    0.000000|   -4.225446|   -1.796258|
|           6|          38|    2.145313|    0.000000|   -4.263475|   -1.834287|
|           6|          39|    2.144503|    0.000000|   -4.299030|   -1.869842|
|           6|          40|    2.143728|    0.000000|   -4.332209|   -1.903021|
|           6|          41|    2.142984|    0.000000|   -4.363026|   -1.933838|
|           6|          42|    2.142268|    0.000000|   -4.391456|   -1.962268|
|           6|          43|    2.141578|    0.000000|   -4.417569|   -1.988381|
|           6|          44|    2.140916|    0.000000|   -4.441324|   -2.012136|
|           6|          45|    2.140287|    0.000000|   -4.462805|   -2.033617|
|           6|          46|    2.139693|    0.000000|   -4.482121|   -2.052933|
|           6|          47|    2.139141|    0.000000|   -4.499405|   -2.070217|
|           6|          48|    2.138635|    0.000000|   -4.514822|   -2.085634|
|           6|          49|    2.138179|    0.000000|   -4.528607|   -2.099419|
|           6|          50|    2.137777|    0.000000|   -4.540993|   -2.111805|
|           6|          51|    2.137431|    0.000000|   -4.552264|   -2.123076|
|           6|          52|    2.137139|    0.000000|   -4.562559|   -2.133371|
|           6|          53|    2.136901|    0.000000|   -4.572044|   -2.142856|
|           6|          54|    2.136714|    0.000000|   -4.580852|   -2.151664|
|           6|          55|    2.136571|    0.000000|   -4.589129|   -2.159941|
|           6|          56|    2.136468|    0.000000|   -4.597097|   -2.167909|
|           6|          57|    2.136399|    0.000000|   -4.605063|   -2.175875|
|           6|          58|    2.136359|    0.000000|   -4.613342|   -2.184154|
|           6|          59|    2.136342|    0.000000|   -4.621917|   -2.192729|
|           6|          60|    2.136343|    0.000000|   -4.630913|   -2.201725|
|           6|          61|    2.136357|    0.000000|   -4.640480|   -2.211292|
|           6|          62|    2.136381|    0.000000|   -4.650631|   -2.221443|
|           6|          63|    2.136413|    0.000000|   -4.661509|   -2.232321|
|           6|          64|    2.136448|    0.000000|   -4.673264|   -2.244076|
|           6|          65|    2.136487|    0.000000|   -4.685839|   -2.256651|
|           6|          66|    2.136528|    0.000000|   -4.699431|   -2.270243|
|           6|          67|    2.136569|    0.000000|   -4.714054|   -2.284866|
|           6|          68|    2.136612|    0.000000|   -4.729456|   -2.300268|
|           6|          69|    2.136654|    0.000000|   -4.745588|   -2.316400|
|           6|          70|    2.136696|    0.000000|   -4.762322|   -2.333134|
|           6|          71|    2.136738|    0.000000|   -4.779668|   -2.350480|
|           6|          72|    2.136779|    0.000000|   -4.797519|   -2.368331|
|           6|          73|    2.136818|    0.000000|   -4.815754|   -2.386566|
|           6|          74|    2.136857|    0.000000|   -4.834345|   -2.405157|
|           6|          75|    2.136893|    0.000000|   -4.853172|   -2.423984|
|           6|          76|    2.136928|    0.000000|   -4.872155|   -2.442967|
|           6|          77|    2.136961|    0.000000|   -4.891211|   -2.462023|
|           6|          78|    2.136992|    0.000000|   -4.910199|   -2.481011|
|           6|          79|    2.137021|    0.000000|   -4.929061|   -2.499873|
|           6|          80|    2.137049|    0.000000|   -4.947678|   -2.518490|
|           6|          81|    2.137074|    0.000000|   -4.966058|   -2.536870|
|           6|          82|    2.137098|    0.000000|   -4.984198|   -2.555010|
|           6|          83|    2.137119|    0.000000|   -5.002063|   -2.572875|
|           6|          84|    2.137140|    0.000000|   -5.019594|   -2.590406|
|           6|          85|    2.137159|    0.000000|   -5.036758|   -2.607570|
|           6|          86|    2.137177|    0.000000|   -5.053539|   -2.624351|
|           6|          87|    2.137193|    0.000000|   -5.069934|   -2.640746|
|           6|          88|    2.137209|    0.000000|   -5.085971|   -2.656783|
|           6|          89|    2.137224|    0.000000|   -5.101630|   -2.672442|
|           6|          90|    2.137238|    0.000000|   -5.116813|   -2.687625|
|           6|          91|    2.137251|    0.000000|   -5.131620|   -2.702432|
|           6|          92|    2.137264|    0.000000|   -5.146167|   -2.716979|
|           6|          93|    2.137276|    0.000000|   -5.160472|   -2.731284|
|           6|          94|    2.137287|    0.000000|   -5.174553|   -2.745365|
|           6|          95|    2.137298|    0.000000|   -5.188422|   -2.759234|
|           6|          96|    2.137309|    0.000000|   -5.202089|   -2.772901|
|           6|          97|    2.137319|    0.000000|   -5.215557|   -2.786369|
|           6|          98|    2.137329|    0.000000|   -5.228819|   -2.799631|
|           6|          99|    2.137339|    0.000000|   -5.241868|   -2.812680|
CSysSolve::FGMRES(): system solved by initial guess.
+-----------------------------------------------------------------------------+
|   Time_Iter|  Inner_Iter|          CD|          CL|    rms[Rho]| relrms[Rho]|
+-----------------------------------------------------------------------------+
|           7|           0|    2.137295|    0.000000|   -2.396724|    0.000000|
|           7|           1|    2.137178|    0.000000|   -2.453878|   -0.057154|
|           7|           2|    2.136979|    0.000000|   -2.515209|   -0.118485|
|           7|           3|    2.136684|    0.000000|   -2.578774|   -0.182050|
|           7|           4|    2.136285|    0.000000|   -2.640006|   -0.243283|
|           7|           5|    2.135777|    0.000000|   -2.694016|   -0.297292|
|           7|           6|    2.135159|    0.000000|   -2.738986|   -0.342262|
|           7|           7|    2.134431|    0.000000|   -2.776495|   -0.379771|
|           7|           8|    2.133599|    0.000000|   -2.809087|   -0.412363|
|           7|           9|    2.132664|    0.000000|   -2.840914|   -0.444190|
|           7|          10|    2.131628|    0.000000|   -2.877937|   -0.481213|
|           7|          11|    2.130497|    0.000000|   -2.920542|   -0.523818|
|           7|          12|    2.129273|    0.000000|   -2.967887|   -0.571163|
|           7|          13|    2.127964|    0.000000|   -3.018575|   -0.621851|
|           7|          14|    2.126577|    0.000000|   -3.071117|   -0.674394|
|           7|          15|    2.125121|    0.000000|   -3.125152|   -0.728428|
|           7|          16|    2.123609|    0.000000|   -3.179894|   -0.783170|
|           7|          17|    2.122051|    0.000000|   -3.235426|   -0.838702|
|           7|          18|    2.120459|    0.000000|   -3.291661|   -0.894937|
|           7|          19|    2.118843|    0.000000|   -3.349117|   -0.952394|
|           7|          20|    2.117216|    0.000000|   -3.408176|   -1.011452|
|           7|          21|    2.115584|    0.000000|   -3.468801|   -1.072078|
|           7|          22|    2.113956|    0.000000|   -3.530740|   -1.134017|
|           7|          23|    2.112337|    0.000000|   -3.594224|   -1.197500|
|           7|          24|    2.110734|    0.000000|   -3.658849|   -1.262125|
|           7|          25|    2.109151|    0.000000|   -3.724183|   -1.327460|
|           7|          26|    2.107591|    0.000000|   -3.789865|   -1.393141|
|           7|          27|    2.106059|    0.000000|   -3.855611|   -1.458887|
|           7|          28|    2.104562|    0.000000|   -3.920576|   -1.523853|
|           7|          29|    2.103105|    0.000000|   -3.984098|   -1.587374|
|           7|          30|    2.101697|    0.000000|   -4.045376|   -1.648652|
|           7|          31|    2.100345|    0.000000|   -4.103544|   -1.706820|
|           7|          32|    2.099059|    0.000000|   -4.157856|   -1.761132|
|           7|          33|    2.097844|    0.000000|   -4.207862|   -1.811138|
|           7|          34|    2.096707|    0.000000|   -4.252995|   -1.856272|
|           7|          35|    2.095651|    0.000000|   -4.293060|   -1.896336|
|           7|          36|    2.094677|    0.000000|   -4.328209|   -1.931486|
|           7|          37|    2.093786|    0.000000|   -4.358791|   -1.962067|
|           7|          38|    2.092977|    0.000000|   -4.385303|   -1.988580|
|           7|          39|    2.092244|    0.000000|   -4.408314|   -2.011590|
|           7|          40|    2.091582|    0.000000|   -4.428474|   -2.031751|
|           7|          41|    2.090985|    0.000000|   -4.446224|   -2.049501|
|           7|          42|    2.090446|    0.000000|   -4.461917|   -2.065193|
|           7|          43|    2.089960|    0.000000|   -4.475873|   -2.079150|
|           7|          44|    2.089519|    0.000000|   -4.488545|   -2.091822|
|           7|          45|    2.089119|    0.000000|   -4.500278|   -2.103555|
|           7|          46|    2.088756|    0.000000|   -4.511258|   -2.114534|
|           7|          47|    2.088427|    0.000000|   -4.521638|   -2.124914|
|           7|          48|    2.088130|    0.000000|   -4.531611|   -2.134887|
|           7|          49|    2.087862|    0.000000|   -4.541429|   -2.144706|
|           7|          50|    2.087623|    0.000000|   -4.551336|   -2.154612|
|           7|          51|    2.087410|    0.000000|   -4.561365|   -2.164641|
|           7|          52|    2.087224|    0.000000|   -4.571642|   -2.174918|
|           7|          53|    2.087063|    0.000000|   -4.582300|   -2.185577|
|           7|          54|    2.086926|    0.000000|   -4.593438|   -2.196714|
|           7|          55|    2.086810|    0.000000|   -4.604995|   -2.208271|
|           7|          56|    2.086715|    0.000000|   -4.617428|   -2.220704|
|           7|          57|    2.086639|    0.000000|   -4.630505|   -2.233781|
|           7|          58|    2.086580|    0.000000|   -4.644203|   -2.247479|
|           7|          59|    2.086536|    0.000000|   -4.658501|   -2.261778|
|           7|          60|    2.086504|    0.000000|   -4.673344|   -2.276620|
|           7|          61|    2.086484|    0.000000|   -4.688425|   -2.291701|
|           7|          62|    2.086473|    0.000000|   -4.703656|   -2.306932|
|           7|          63|    2.086469|    0.000000|   -4.719087|   -2.322363|
|           7|          64|    2.086471|    0.000000|   -4.734885|   -2.338161|
|           7|          65|    2.086477|    0.000000|   -4.751083|   -2.354359|
|           7|          66|    2.086487|    0.000000|   -4.767550|   -2.370826|
|           7|          67|    2.086500|    0.000000|   -4.784183|   -2.387460|
|           7|          68|    2.086515|    0.000000|   -4.800958|   -2.404235|
|           7|          69|    2.086530|    0.000000|   -4.817788|   -2.421064|
|           7|          70|    2.086547|    0.000000|   -4.834688|   -2.437965|
|           7|          71|    2.086565|   -0.000000|   -4.851585|   -2.454861|
|           7|          72|    2.086583|   -0.000000|   -4.868301|   -2.471577|
|           7|          73|    2.086601|   -0.000000|   -4.884839|   -2.488115|
|           7|          74|    2.086619|   -0.000000|   -4.901114|   -2.504390|
|           7|          75|    2.086638|   -0.000000|   -4.917061|   -2.520337|
|           7|          76|    2.086657|   -0.000000|   -4.932580|   -2.535856|
|           7|          77|    2.086677|   -0.000000|   -4.947754|   -2.551030|
|           7|          78|    2.086696|   -0.000000|   -4.962434|   -2.565711|
|           7|          79|    2.086716|   -0.000000|   -4.976565|   -2.579841|
|           7|          80|    2.086737|   -0.000000|   -4.990075|   -2.593351|
|           7|          81|    2.086757|   -0.000000|   -5.002823|   -2.606099|
|           7|          82|    2.086778|   -0.000000|   -5.015154|   -2.618430|
|           7|          83|    2.086798|   -0.000000|   -5.027050|   -2.630327|
|           7|          84|    2.086819|   -0.000000|   -5.038568|   -2.641844|
|           7|          85|    2.086840|   -0.000000|   -5.049849|   -2.653125|
|           7|          86|    2.086861|   -0.000000|   -5.060948|   -2.664224|
|           7|          87|    2.086882|   -0.000000|   -5.071793|   -2.675069|
|           7|          88|    2.086902|   -0.000000|   -5.082386|   -2.685662|
|           7|          89|    2.086923|   -0.000000|   -5.092862|   -2.696139|
|           7|          90|    2.086943|   -0.000000|   -5.103148|   -2.706424|
|           7|          91|    2.086963|   -0.000000|   -5.113338|   -2.716614|
|           7|          92|    2.086983|   -0.000000|   -5.123395|   -2.726671|
|           7|          93|    2.087002|   -0.000000|   -5.133434|   -2.736710|
|           7|          94|    2.087021|   -0.000000|   -5.143441|   -2.746717|
|           7|          95|    2.087040|   -0.000000|   -5.153378|   -2.756654|
|           7|          96|    2.087058|   -0.000000|   -5.163111|   -2.766387|
|           7|          97|    2.087076|   -0.000000|   -5.172675|   -2.775951|
|           7|          98|    2.087093|   -0.000000|   -5.182235|   -2.785511|
|           7|          99|    2.087110|   -0.000000|   -5.191787|   -2.795064|
[...]
|         197|          79|    1.929438|    0.015573|   -5.930065|   -2.880551|
|         197|          80|    1.929443|    0.015561|   -5.948066|   -2.898552|
|         197|          81|    1.929448|    0.015550|   -5.965630|   -2.916116|
|         197|          82|    1.929453|    0.015540|   -5.982761|   -2.933247|
|         197|          83|    1.929457|    0.015530|   -5.999474|   -2.949960|
|         197|          84|    1.929460|    0.015521|   -6.015807|   -2.966293|
|         197|          85|    1.929462|    0.015512|   -6.031789|   -2.982275|
|         197|          86|    1.929464|    0.015503|   -6.047456|   -2.997942|
|         197|          87|    1.929466|    0.015496|   -6.062853|   -3.013339|
|         197|          88|    1.929467|    0.015488|   -6.078012|   -3.028498|
|         197|          89|    1.929468|    0.015481|   -6.092968|   -3.043454|
|         197|          90|    1.929468|    0.015474|   -6.107754|   -3.058240|
|         197|          91|    1.929468|    0.015467|   -6.122403|   -3.072889|
|         197|          92|    1.929468|    0.015461|   -6.136940|   -3.087426|
|         197|          93|    1.929468|    0.015455|   -6.151389|   -3.101875|
|         197|          94|    1.929467|    0.015450|   -6.165769|   -3.116255|
|         197|          95|    1.929466|    0.015444|   -6.180095|   -3.130581|
|         197|          96|    1.929465|    0.015439|   -6.194378|   -3.144864|
|         197|          97|    1.929464|    0.015434|   -6.208627|   -3.159112|
|         197|          98|    1.929463|    0.015430|   -6.222847|   -3.173333|
|         197|          99|    1.929461|    0.015425|   -6.237037|   -3.187523|
CSysSolve::FGMRES(): system solved by initial guess.
+-----------------------------------------------------------------------------+
|   Time_Iter|  Inner_Iter|          CD|          CL|    rms[Rho]| relrms[Rho]|
+-----------------------------------------------------------------------------+
|         198|           0|    1.929429|    0.015325|   -3.047521|    0.000000|
|         198|           1|    1.929398|    0.015220|   -3.125825|   -0.078304|
|         198|           2|    1.929368|    0.015110|   -3.190125|   -0.142604|
|         198|           3|    1.929340|    0.014992|   -3.245464|   -0.197943|
|         198|           4|    1.929315|    0.014865|   -3.294414|   -0.246892|
|         198|           5|    1.929295|    0.014729|   -3.338579|   -0.291058|
|         198|           6|    1.929279|    0.014584|   -3.382296|   -0.334775|
|         198|           7|    1.929267|    0.014432|   -3.426389|   -0.378868|
|         198|           8|    1.929258|    0.014274|   -3.472226|   -0.424705|
|         198|           9|    1.929251|    0.014114|   -3.517430|   -0.469909|
|         198|          10|    1.929242|    0.013952|   -3.562889|   -0.515368|
|         198|          11|    1.929231|    0.013792|   -3.609119|   -0.561598|
|         198|          12|    1.929217|    0.013635|   -3.660124|   -0.612603|
|         198|          13|    1.929200|    0.013482|   -3.714844|   -0.667323|
|         198|          14|    1.929179|    0.013333|   -3.770647|   -0.723126|
|         198|          15|    1.929156|    0.013191|   -3.828304|   -0.780783|
|         198|          16|    1.929131|    0.013054|   -3.886886|   -0.839365|
|         198|          17|    1.929107|    0.012923|   -3.944387|   -0.896866|
|         198|          18|    1.929084|    0.012798|   -4.003395|   -0.955874|
|         198|          19|    1.929062|    0.012679|   -4.060591|   -1.013070|
|         198|          20|    1.929043|    0.012564|   -4.113757|   -1.066236|
|         198|          21|    1.929027|    0.012454|   -4.162427|   -1.114905|
|         198|          22|    1.929014|    0.012349|   -4.212315|   -1.164794|
|         198|          23|    1.929005|    0.012247|   -4.259509|   -1.211988|
|         198|          24|    1.928998|    0.012149|   -4.303119|   -1.255598|
|         198|          25|    1.928994|    0.012054|   -4.346009|   -1.298488|
|         198|          26|    1.928993|    0.011962|   -4.389791|   -1.342270|
|         198|          27|    1.928996|    0.011873|   -4.433359|   -1.385838|
|         198|          28|    1.929000|    0.011786|   -4.477145|   -1.429624|
|         198|          29|    1.929007|    0.011701|   -4.525502|   -1.477981|
|         198|          30|    1.929017|    0.011618|   -4.575183|   -1.527662|
|         198|          31|    1.929028|    0.011538|   -4.624443|   -1.576922|
|         198|          32|    1.929042|    0.011459|   -4.672505|   -1.624984|
|         198|          33|    1.929057|    0.011381|   -4.719056|   -1.671535|
|         198|          34|    1.929073|    0.011306|   -4.763921|   -1.716400|
|         198|          35|    1.929091|    0.011232|   -4.807252|   -1.759731|
|         198|          36|    1.929110|    0.011160|   -4.848963|   -1.801442|
|         198|          37|    1.929130|    0.011089|   -4.889170|   -1.841649|
|         198|          38|    1.929151|    0.011020|   -4.927826|   -1.880305|
|         198|          39|    1.929172|    0.010952|   -4.965114|   -1.917593|
|         198|          40|    1.929194|    0.010886|   -5.001067|   -1.953546|
|         198|          41|    1.929216|    0.010822|   -5.035574|   -1.988053|
|         198|          42|    1.929238|    0.010759|   -5.068427|   -2.020906|
|         198|          43|    1.929259|    0.010698|   -5.099796|   -2.052275|
|         198|          44|    1.929281|    0.010638|   -5.129712|   -2.082191|
|         198|          45|    1.929302|    0.010580|   -5.158240|   -2.110719|
|         198|          46|    1.929322|    0.010523|   -5.185513|   -2.137992|
|         198|          47|    1.929341|    0.010468|   -5.211545|   -2.164024|
|         198|          48|    1.929360|    0.010415|   -5.236504|   -2.188983|
|         198|          49|    1.929378|    0.010364|   -5.260633|   -2.213112|
|         198|          50|    1.929394|    0.010314|   -5.284044|   -2.236523|
|         198|          51|    1.929410|    0.010266|   -5.307034|   -2.259513|
|         198|          52|    1.929424|    0.010219|   -5.329437|   -2.281916|
|         198|          53|    1.929437|    0.010175|   -5.351229|   -2.303708|
|         198|          54|    1.929449|    0.010132|   -5.372496|   -2.324975|
|         198|          55|    1.929460|    0.010091|   -5.393281|   -2.345760|
|         198|          56|    1.929470|    0.010051|   -5.413598|   -2.366077|
|         198|          57|    1.929478|    0.010014|   -5.433464|   -2.385943|
|         198|          58|    1.929486|    0.009978|   -5.452911|   -2.405390|
|         198|          59|    1.929492|    0.009943|   -5.471995|   -2.424474|
|         198|          60|    1.929498|    0.009910|   -5.490732|   -2.443211|
|         198|          61|    1.929502|    0.009878|   -5.509133|   -2.461612|
|         198|          62|    1.929506|    0.009848|   -5.527224|   -2.479703|
|         198|          63|    1.929509|    0.009820|   -5.545020|   -2.497499|
|         198|          64|    1.929511|    0.009793|   -5.562536|   -2.515015|
|         198|          65|    1.929512|    0.009767|   -5.579791|   -2.532270|
|         198|          66|    1.929512|    0.009742|   -5.596791|   -2.549270|
|         198|          67|    1.929512|    0.009718|   -5.613543|   -2.566022|
|         198|          68|    1.929511|    0.009696|   -5.630054|   -2.582533|
|         198|          69|    1.929510|    0.009675|   -5.646327|   -2.598806|
|         198|          70|    1.929509|    0.009655|   -5.662369|   -2.614848|
|         198|          71|    1.929507|    0.009636|   -5.678183|   -2.630662|
|         198|          72|    1.929504|    0.009617|   -5.693781|   -2.646260|
|         198|          73|    1.929501|    0.009600|   -5.709182|   -2.661661|
|         198|          74|    1.929499|    0.009584|   -5.724401|   -2.676880|
|         198|          75|    1.929496|    0.009568|   -5.739456|   -2.691935|
|         198|          76|    1.929492|    0.009553|   -5.754363|   -2.706841|
|         198|          77|    1.929489|    0.009539|   -5.769160|   -2.721639|
|         198|          78|    1.929486|    0.009525|   -5.783854|   -2.736333|
|         198|          79|    1.929482|    0.009513|   -5.798409|   -2.750888|
|         198|          80|    1.929479|    0.009500|   -5.812840|   -2.765319|
|         198|          81|    1.929475|    0.009489|   -5.827191|   -2.779670|
|         198|          82|    1.929472|    0.009478|   -5.841501|   -2.793980|
|         198|          83|    1.929469|    0.009467|   -5.855786|   -2.808265|
|         198|          84|    1.929465|    0.009457|   -5.870046|   -2.822525|
|         198|          85|    1.929462|    0.009447|   -5.884276|   -2.836755|
|         198|          86|    1.929459|    0.009438|   -5.898477|   -2.850956|
|         198|          87|    1.929457|    0.009429|   -5.912643|   -2.865122|
|         198|          88|    1.929454|    0.009420|   -5.926776|   -2.879255|
|         198|          89|    1.929451|    0.009412|   -5.940867|   -2.893346|
|         198|          90|    1.929449|    0.009404|   -5.954913|   -2.907392|
|         198|          91|    1.929447|    0.009396|   -5.968947|   -2.921426|
|         198|          92|    1.929444|    0.009389|   -5.982976|   -2.935455|
|         198|          93|    1.929442|    0.009382|   -5.996998|   -2.949477|
|         198|          94|    1.929441|    0.009375|   -6.011010|   -2.963489|
|         198|          95|    1.929439|    0.009368|   -6.025007|   -2.977486|
|         198|          96|    1.929437|    0.009362|   -6.038985|   -2.991464|
|         198|          97|    1.929436|    0.009356|   -6.052943|   -3.005422|
|         198|          98|    1.929435|    0.009350|   -6.066852|   -3.019331|
|         198|          99|    1.929433|    0.009344|   -6.080698|   -3.033177|
+-----------------------------------------------------------------------+
|        File Writing Summary       |              Filename             |
+-----------------------------------------------------------------------+
|SU2 binary restart                 |output_restart/restart_flow_00198.dat|
+-----------------------------------------------------------------------+
CSysSolve::FGMRES(): system solved by initial guess.
+-----------------------------------------------------------------------------+
|   Time_Iter|  Inner_Iter|          CD|          CL|    rms[Rho]| relrms[Rho]|
+-----------------------------------------------------------------------------+
|         199|           0|    1.929436|    0.009177|   -3.041815|    0.000000|
|         199|           1|    1.929440|    0.009001|   -3.119658|   -0.077843|
|         199|           2|    1.929445|    0.008814|   -3.182758|   -0.140943|
|         199|           3|    1.929452|    0.008617|   -3.235719|   -0.193905|
|         199|           4|    1.929459|    0.008408|   -3.283443|   -0.241628|
|         199|           5|    1.929467|    0.008188|   -3.327790|   -0.285975|
|         199|           6|    1.929475|    0.007957|   -3.371144|   -0.329329|
|         199|           7|    1.929483|    0.007717|   -3.417066|   -0.375251|
|         199|           8|    1.929491|    0.007471|   -3.465933|   -0.424118|
|         199|           9|    1.929500|    0.007221|   -3.518576|   -0.476761|
|         199|          10|    1.929512|    0.006971|   -3.573647|   -0.531833|
|         199|          11|    1.929526|    0.006723|   -3.631994|   -0.590179|
|         199|          12|    1.929543|    0.006479|   -3.693151|   -0.651336|
|         199|          13|    1.929564|    0.006242|   -3.755687|   -0.713873|
|         199|          14|    1.929590|    0.006013|   -3.822074|   -0.780259|
|         199|          15|    1.929619|    0.005794|   -3.889177|   -0.847362|
|         199|          16|    1.929652|    0.005584|   -3.955812|   -0.913998|
|         199|          17|    1.929688|    0.005385|   -4.022000|   -0.980186|
|         199|          18|    1.929726|    0.005197|   -4.087015|   -1.045200|
|         199|          19|    1.929766|    0.005018|   -4.149629|   -1.107814|
|         199|          20|    1.929807|    0.004849|   -4.209920|   -1.168105|
|         199|          21|    1.929849|    0.004689|   -4.270068|   -1.228253|
|         199|          22|    1.929891|    0.004537|   -4.328386|   -1.286572|
|         199|          23|    1.929932|    0.004393|   -4.385175|   -1.343360|
|         199|          24|    1.929974|    0.004256|   -4.441191|   -1.399376|
|         199|          25|    1.930014|    0.004125|   -4.495669|   -1.453854|
|         199|          26|    1.930054|    0.004000|   -4.548867|   -1.507052|
|         199|          27|    1.930092|    0.003880|   -4.600344|   -1.558530|
|         199|          28|    1.930130|    0.003764|   -4.649725|   -1.607910|
|         199|          29|    1.930167|    0.003653|   -4.696578|   -1.654763|
|         199|          30|    1.930202|    0.003547|   -4.740546|   -1.698732|
|         199|          31|    1.930236|    0.003443|   -4.781379|   -1.739564|
|         199|          32|    1.930269|    0.003344|   -4.818960|   -1.777145|
|         199|          33|    1.930300|    0.003247|   -4.853322|   -1.811507|
|         199|          34|    1.930329|    0.003154|   -4.884682|   -1.842867|
|         199|          35|    1.930357|    0.003064|   -4.913343|   -1.871528|
|         199|          36|    1.930383|    0.002976|   -4.939719|   -1.897904|
|         199|          37|    1.930406|    0.002892|   -4.964259|   -1.922444|
|         199|          38|    1.930428|    0.002810|   -4.987423|   -1.945608|
|         199|          39|    1.930447|    0.002731|   -5.009665|   -1.967851|
|         199|          40|    1.930464|    0.002655|   -5.031229|   -1.989414|
|         199|          41|    1.930479|    0.002581|   -5.052309|   -2.010494|
|         199|          42|    1.930492|    0.002511|   -5.073029|   -2.031214|
|         199|          43|    1.930503|    0.002443|   -5.093482|   -2.051668|
|         199|          44|    1.930512|    0.002377|   -5.113737|   -2.071922|
|         199|          45|    1.930520|    0.002315|   -5.133818|   -2.092004|
|         199|          46|    1.930525|    0.002255|   -5.153717|   -2.111902|
|         199|          47|    1.930529|    0.002197|   -5.173459|   -2.131644|
|         199|          48|    1.930531|    0.002143|   -5.193044|   -2.151229|
|         199|          49|    1.930532|    0.002090|   -5.212457|   -2.170642|
|         199|          50|    1.930532|    0.002041|   -5.231698|   -2.189883|
|         199|          51|    1.930530|    0.001993|   -5.250749|   -2.208934|
|         199|          52|    1.930528|    0.001948|   -5.269581|   -2.227766|
|         199|          53|    1.930525|    0.001905|   -5.288190|   -2.246376|
|         199|          54|    1.930521|    0.001865|   -5.306558|   -2.264743|
|         199|          55|    1.930516|    0.001826|   -5.324672|   -2.282857|
|         199|          56|    1.930511|    0.001790|   -5.342579|   -2.300764|
|         199|          57|    1.930505|    0.001755|   -5.360201|   -2.318386|
|         199|          58|    1.930499|    0.001722|   -5.377538|   -2.335724|
|         199|          59|    1.930493|    0.001691|   -5.394581|   -2.352766|
|         199|          60|    1.930486|    0.001662|   -5.411367|   -2.369552|
|         199|          61|    1.930479|    0.001634|   -5.427923|   -2.386108|
|         199|          62|    1.930472|    0.001608|   -5.444268|   -2.402453|
|         199|          63|    1.930465|    0.001582|   -5.460423|   -2.418608|
|         199|          64|    1.930457|    0.001559|   -5.476411|   -2.434596|
|         199|          65|    1.930450|    0.001536|   -5.492243|   -2.450429|
|         199|          66|    1.930443|    0.001515|   -5.507951|   -2.466136|
|         199|          67|    1.930435|    0.001494|   -5.523558|   -2.481743|
|         199|          68|    1.930428|    0.001475|   -5.539051|   -2.497237|
|         199|          69|    1.930421|    0.001457|   -5.554461|   -2.512646|
|         199|          70|    1.930414|    0.001440|   -5.569799|   -2.527985|
|         199|          71|    1.930407|    0.001423|   -5.585071|   -2.543257|
|         199|          72|    1.930401|    0.001407|   -5.600276|   -2.558461|
|         199|          73|    1.930395|    0.001392|   -5.615491|   -2.573676|
|         199|          74|    1.930389|    0.001378|   -5.630630|   -2.588815|
|         199|          75|    1.930383|    0.001364|   -5.645688|   -2.603873|
|         199|          76|    1.930377|    0.001351|   -5.660661|   -2.618846|
|         199|          77|    1.930372|    0.001339|   -5.675534|   -2.633719|
|         199|          78|    1.930367|    0.001327|   -5.690314|   -2.648499|
|         199|          79|    1.930362|    0.001315|   -5.705012|   -2.663197|
|         199|          80|    1.930357|    0.001304|   -5.719619|   -2.677804|
|         199|          81|    1.930353|    0.001294|   -5.734189|   -2.692374|
|         199|          82|    1.930348|    0.001284|   -5.748726|   -2.706911|
|         199|          83|    1.930345|    0.001274|   -5.763163|   -2.721348|
|         199|          84|    1.930341|    0.001265|   -5.777611|   -2.735796|
|         199|          85|    1.930337|    0.001255|   -5.792051|   -2.750236|
|         199|          86|    1.930334|    0.001247|   -5.806459|   -2.764645|
|         199|          87|    1.930331|    0.001238|   -5.820811|   -2.778996|
|         199|          88|    1.930328|    0.001230|   -5.835092|   -2.793277|
|         199|          89|    1.930325|    0.001223|   -5.849279|   -2.807464|
|         199|          90|    1.930323|    0.001215|   -5.863369|   -2.821554|
|         199|          91|    1.930321|    0.001208|   -5.877336|   -2.835521|
|         199|          92|    1.930318|    0.001201|   -5.891158|   -2.849343|
|         199|          93|    1.930316|    0.001194|   -5.904826|   -2.863011|
|         199|          94|    1.930315|    0.001187|   -5.918339|   -2.876524|
|         199|          95|    1.930313|    0.001181|   -5.931688|   -2.889873|
|         199|          96|    1.930311|    0.001175|   -5.944834|   -2.903020|
|         199|          97|    1.930310|    0.001169|   -5.957763|   -2.915948|
|         199|          98|    1.930308|    0.001163|   -5.970444|   -2.928629|
|         199|          99|    1.930307|    0.001158|   -5.982856|   -2.941041|

----------------------------- Solver Exit -------------------------------
Maximum number of time iterations reached (TIME_ITER = 200).
-------------------------------------------------------------------------
+-----------------------------------------------------------------------+
|        File Writing Summary       |              Filename             |
+-----------------------------------------------------------------------+
|SU2 binary restart                 |output_restart/restart_flow_00199.dat|
|Paraview                           |output_flow/flow_00199.vtu         |
|Paraview surface                   |output_surface_flow/surface_flow_00199.vtu|
+-----------------------------------------------------------------------+

------------------------- Solver Postprocessing -------------------------
Deleted CNumerics container.
Deleted CIntegration container.
Deleted CSolver container.
Deleted CIteration container.
Deleted CInterface container.
Deleted CGeometry container.
Deleted CFreeFormDefBox class.
Deleted CSurfaceMovement class.
Deleted CVolumetricMovement class.
Deleted CConfig container.
Deleted nInst container.
Deleted COutput class.
-------------------------------------------------------------------------

------------------------- Exit Success (SU2_CFD) ------------------------

